_audit_creation_date      'Dec. 30, 2024'
_audit_creation_method    'Draft CIF file generated with Atomsk'
 
_chemical_name_common             ?
_chemical_melting_point           ?
_chemical_formula_iupac           'Ga2997 N3108'
_chemical_formula_moiety          'Ga2997 N3108'
_chemical_formula_sum             'Ga2997 N3108'
_chemical_formula_weight          252493.587
_chemical_compound_source         ?
_chemical_absolute_configuration  ?
_exptl_crystal_description        'EDIT-ENTRY'
_diffrn_measurement_device_type   'EDIT-ENTRY'
 
_space_group_IT_number            1
_space_group_crystal_system       orthorhombic
_symmetry_space_group_name_Hall   'P 1'
_symmetry_space_group_name_H-M    'P 1'
 
loop_
_space_group_symop_operation_xyz
'+x,+y,+z'
 
_cell_length_a                    41.0000
_cell_length_b                    35.8600
_cell_length_c                    70.0110
_cell_angle_alpha                 90.0000
_cell_angle_beta                  90.0000
_cell_angle_gamma                 90.0000
_cell_volume                      102934.3757
 
loop_
 _atom_site_label
 _atom_site_type_symbol
 _atom_site_fract_x
 _atom_site_fract_y
 _atom_site_fract_z
Ga1  Ga  0.314050  0.266537  0.000000
Ga2  Ga  0.314050  0.266537  0.962963
Ga3  Ga  0.314050  0.266537  0.074074
Ga4  Ga  0.314050  0.266537  0.148148
Ga5  Ga  0.314050  0.266537  0.222222
Ga6  Ga  0.314050  0.266537  0.296296
Ga7  Ga  0.314050  0.266537  0.370370
Ga8  Ga  0.314050  0.266537  0.444444
Ga9  Ga  0.314050  0.266537  0.518519
Ga10  Ga  0.314050  0.266537  0.592593
Ga11  Ga  0.314050  0.266537  0.666667
Ga12  Ga  0.314050  0.266537  0.740741
Ga13  Ga  0.314050  0.266537  0.814815
Ga14  Ga  0.314050  0.266537  0.888889
Ga15  Ga  0.314050  0.355382  0.000000
Ga16  Ga  0.314050  0.355382  0.962963
Ga17  Ga  0.314050  0.355382  0.074074
Ga18  Ga  0.314050  0.355382  0.148148
Ga19  Ga  0.314050  0.355382  0.222222
Ga20  Ga  0.314050  0.355382  0.296296
Ga21  Ga  0.314050  0.355382  0.370370
Ga22  Ga  0.314050  0.355382  0.444444
Ga23  Ga  0.314050  0.355382  0.518519
Ga24  Ga  0.314050  0.355382  0.592593
Ga25  Ga  0.314050  0.355382  0.666667
Ga26  Ga  0.314050  0.355382  0.740741
Ga27  Ga  0.314050  0.355382  0.814815
Ga28  Ga  0.314050  0.355382  0.888889
Ga29  Ga  0.314050  0.444228  0.000000
Ga30  Ga  0.314050  0.444228  0.962963
Ga31  Ga  0.314050  0.444228  0.074074
Ga32  Ga  0.314050  0.444228  0.148148
Ga33  Ga  0.314050  0.444228  0.222222
Ga34  Ga  0.314050  0.444228  0.296296
Ga35  Ga  0.314050  0.444228  0.370370
Ga36  Ga  0.314050  0.444228  0.444444
Ga37  Ga  0.314050  0.444228  0.518519
Ga38  Ga  0.314050  0.444228  0.592593
Ga39  Ga  0.314050  0.444228  0.666667
Ga40  Ga  0.314050  0.444228  0.740741
Ga41  Ga  0.314050  0.444228  0.814815
Ga42  Ga  0.314050  0.444228  0.888889
Ga43  Ga  0.314050  0.533073  0.000000
Ga44  Ga  0.314050  0.533073  0.962963
Ga45  Ga  0.314050  0.533073  0.074074
Ga46  Ga  0.314050  0.533073  0.148148
Ga47  Ga  0.314050  0.533073  0.222222
Ga48  Ga  0.314050  0.533073  0.296296
Ga49  Ga  0.314050  0.533073  0.370370
Ga50  Ga  0.314050  0.533073  0.444444
Ga51  Ga  0.314050  0.533073  0.518519
Ga52  Ga  0.314050  0.533073  0.592593
Ga53  Ga  0.314050  0.533073  0.666667
Ga54  Ga  0.314050  0.533073  0.740741
Ga55  Ga  0.314050  0.533073  0.814815
Ga56  Ga  0.314050  0.533073  0.888889
Ga57  Ga  0.314050  0.621919  0.000000
Ga58  Ga  0.314050  0.621919  0.962963
Ga59  Ga  0.314050  0.621919  0.074074
Ga60  Ga  0.314050  0.621919  0.148148
Ga61  Ga  0.314050  0.621919  0.222222
Ga62  Ga  0.314050  0.621919  0.296296
Ga63  Ga  0.314050  0.621919  0.370370
Ga64  Ga  0.314050  0.621919  0.444444
Ga65  Ga  0.314050  0.621919  0.518519
Ga66  Ga  0.314050  0.621919  0.592593
Ga67  Ga  0.314050  0.621919  0.666667
Ga68  Ga  0.314050  0.621919  0.740741
Ga69  Ga  0.314050  0.621919  0.814815
Ga70  Ga  0.314050  0.621919  0.888889
Ga71  Ga  0.448643  0.000000  0.000000
Ga72  Ga  0.448643 -0.000000  0.962963
Ga73  Ga  0.448643 -0.000000  0.074074
Ga74  Ga  0.448643 -0.000000  0.148148
Ga75  Ga  0.448643 -0.000000  0.222222
Ga76  Ga  0.448643 -0.000000  0.296296
Ga77  Ga  0.448643 -0.000000  0.370370
Ga78  Ga  0.448643 -0.000000  0.444444
Ga79  Ga  0.448643 -0.000000  0.518519
Ga80  Ga  0.448643 -0.000000  0.592593
Ga81  Ga  0.448643 -0.000000  0.666667
Ga82  Ga  0.448643 -0.000000  0.740741
Ga83  Ga  0.448643 -0.000000  0.814815
Ga84  Ga  0.448643 -0.000000  0.888889
Ga85  Ga  0.448643  0.088846  0.000000
Ga86  Ga  0.448643  0.088846  0.962963
Ga87  Ga  0.448643  0.088846  0.074074
Ga88  Ga  0.448643  0.088846  0.148148
Ga89  Ga  0.448643  0.088846  0.222222
Ga90  Ga  0.448643  0.088846  0.296296
Ga91  Ga  0.448643  0.088846  0.370370
Ga92  Ga  0.448643  0.088846  0.444444
Ga93  Ga  0.448643  0.088846  0.518519
Ga94  Ga  0.448643  0.088846  0.592593
Ga95  Ga  0.448643  0.088846  0.666667
Ga96  Ga  0.448643  0.088846  0.740741
Ga97  Ga  0.448643  0.088846  0.814815
Ga98  Ga  0.448643  0.088846  0.888889
Ga99  Ga  0.448643  0.177691  0.000000
Ga100  Ga  0.448643  0.177691  0.962963
Ga101  Ga  0.448643  0.177691  0.074074
Ga102  Ga  0.448643  0.177691  0.148148
Ga103  Ga  0.448643  0.177691  0.222222
Ga104  Ga  0.448643  0.177691  0.296296
Ga105  Ga  0.448643  0.177691  0.370370
Ga106  Ga  0.448643  0.177691  0.444444
Ga107  Ga  0.448643  0.177691  0.518519
Ga108  Ga  0.448643  0.177691  0.592593
Ga109  Ga  0.448643  0.177691  0.666667
Ga110  Ga  0.448643  0.177691  0.740741
Ga111  Ga  0.448643  0.177691  0.814815
Ga112  Ga  0.448643  0.177691  0.888889
Ga113  Ga  0.448643  0.266537  0.000000
Ga114  Ga  0.448643  0.266537  0.962963
Ga115  Ga  0.448643  0.266537  0.074074
Ga116  Ga  0.448643  0.266537  0.148148
Ga117  Ga  0.448643  0.266537  0.222222
Ga118  Ga  0.448643  0.266537  0.296296
Ga119  Ga  0.448643  0.266537  0.370370
Ga120  Ga  0.448643  0.266537  0.444444
Ga121  Ga  0.448643  0.266537  0.518519
Ga122  Ga  0.448643  0.266537  0.592593
Ga123  Ga  0.448643  0.266537  0.666667
Ga124  Ga  0.448643  0.266537  0.740741
Ga125  Ga  0.448643  0.266537  0.814815
Ga126  Ga  0.448643  0.266537  0.888889
Ga127  Ga  0.448643  0.355382  0.000000
Ga128  Ga  0.448643  0.355382  0.962963
Ga129  Ga  0.448643  0.355382  0.074074
Ga130  Ga  0.448643  0.355382  0.148148
Ga131  Ga  0.448643  0.355382  0.222222
Ga132  Ga  0.448643  0.355382  0.296296
Ga133  Ga  0.448643  0.355382  0.370370
Ga134  Ga  0.448643  0.355382  0.444444
Ga135  Ga  0.448643  0.355382  0.518519
Ga136  Ga  0.448643  0.355382  0.592593
Ga137  Ga  0.448643  0.355382  0.666667
Ga138  Ga  0.448643  0.355382  0.740741
Ga139  Ga  0.448643  0.355382  0.814815
Ga140  Ga  0.448643  0.355382  0.888889
Ga141  Ga  0.448643  0.444228  0.000000
Ga142  Ga  0.448643  0.444228  0.962963
Ga143  Ga  0.448643  0.444228  0.074074
Ga144  Ga  0.448643  0.444228  0.148148
Ga145  Ga  0.448643  0.444228  0.222222
Ga146  Ga  0.448643  0.444228  0.296296
Ga147  Ga  0.448643  0.444228  0.370370
Ga148  Ga  0.448643  0.444228  0.444444
Ga149  Ga  0.448643  0.444228  0.518519
Ga150  Ga  0.448643  0.444228  0.592593
Ga151  Ga  0.448643  0.444228  0.666667
Ga152  Ga  0.448643  0.444228  0.740741
Ga153  Ga  0.448643  0.444228  0.814815
Ga154  Ga  0.448643  0.444228  0.888889
Ga155  Ga  0.448643  0.533073  0.000000
Ga156  Ga  0.448643  0.533073  0.962963
Ga157  Ga  0.448643  0.533073  0.074074
Ga158  Ga  0.448643  0.533073  0.148148
Ga159  Ga  0.448643  0.533073  0.222222
Ga160  Ga  0.448643  0.533073  0.296296
Ga161  Ga  0.448643  0.533073  0.370370
Ga162  Ga  0.448643  0.533073  0.444444
Ga163  Ga  0.448643  0.533073  0.518519
Ga164  Ga  0.448643  0.533073  0.592593
Ga165  Ga  0.448643  0.533073  0.666667
Ga166  Ga  0.448643  0.533073  0.740741
Ga167  Ga  0.448643  0.533073  0.814815
Ga168  Ga  0.448643  0.533073  0.888889
Ga169  Ga  0.448643  0.621919  0.000000
Ga170  Ga  0.448643  0.621919  0.962963
Ga171  Ga  0.448643  0.621919  0.074074
Ga172  Ga  0.448643  0.621919  0.148148
Ga173  Ga  0.448643  0.621919  0.222222
Ga174  Ga  0.448643  0.621919  0.296296
Ga175  Ga  0.448643  0.621919  0.370370
Ga176  Ga  0.448643  0.621919  0.444444
Ga177  Ga  0.448643  0.621919  0.518519
Ga178  Ga  0.448643  0.621919  0.592593
Ga179  Ga  0.448643  0.621919  0.666667
Ga180  Ga  0.448643  0.621919  0.740741
Ga181  Ga  0.448643  0.621919  0.814815
Ga182  Ga  0.448643  0.621919  0.888889
Ga183  Ga  0.448643  0.710764  0.000000
Ga184  Ga  0.448643  0.710764  0.962963
Ga185  Ga  0.448643  0.710764  0.074074
Ga186  Ga  0.448643  0.710764  0.148148
Ga187  Ga  0.448643  0.710764  0.222222
Ga188  Ga  0.448643  0.710764  0.296296
Ga189  Ga  0.448643  0.710764  0.370370
Ga190  Ga  0.448643  0.710764  0.444444
Ga191  Ga  0.448643  0.710764  0.518519
Ga192  Ga  0.448643  0.710764  0.592593
Ga193  Ga  0.448643  0.710764  0.666667
Ga194  Ga  0.448643  0.710764  0.740741
Ga195  Ga  0.448643  0.710764  0.814815
Ga196  Ga  0.448643  0.710764  0.888889
Ga197  Ga  0.448643  0.799610  0.000000
Ga198  Ga  0.448643  0.799610  0.962963
Ga199  Ga  0.448643  0.799610  0.074074
Ga200  Ga  0.448643  0.799610  0.148148
Ga201  Ga  0.448643  0.799610  0.222222
Ga202  Ga  0.448643  0.799610  0.296296
Ga203  Ga  0.448643  0.799610  0.370370
Ga204  Ga  0.448643  0.799610  0.444444
Ga205  Ga  0.448643  0.799610  0.518519
Ga206  Ga  0.448643  0.799610  0.592593
Ga207  Ga  0.448643  0.799610  0.666667
Ga208  Ga  0.448643  0.799610  0.740741
Ga209  Ga  0.448643  0.799610  0.814815
Ga210  Ga  0.448643  0.799610  0.888889
Ga211  Ga  0.448643  0.888455  0.000000
Ga212  Ga  0.448643  0.888455  0.962963
Ga213  Ga  0.448643  0.888455  0.074074
Ga214  Ga  0.448643  0.888455  0.148148
Ga215  Ga  0.448643  0.888455  0.222222
Ga216  Ga  0.448643  0.888455  0.296296
Ga217  Ga  0.448643  0.888455  0.370370
Ga218  Ga  0.448643  0.888455  0.444444
Ga219  Ga  0.448643  0.888455  0.518519
Ga220  Ga  0.448643  0.888455  0.592593
Ga221  Ga  0.448643  0.888455  0.666667
Ga222  Ga  0.448643  0.888455  0.740741
Ga223  Ga  0.448643  0.888455  0.814815
Ga224  Ga  0.448643  0.888455  0.888889
Ga225  Ga  0.583236  0.000000  0.000000
Ga226  Ga  0.583236 -0.000000  0.962963
Ga227  Ga  0.583236 -0.000000  0.074074
Ga228  Ga  0.583236 -0.000000  0.148148
Ga229  Ga  0.583236 -0.000000  0.222222
Ga230  Ga  0.583236 -0.000000  0.296296
Ga231  Ga  0.583236 -0.000000  0.370370
Ga232  Ga  0.583236 -0.000000  0.444444
Ga233  Ga  0.583236 -0.000000  0.518519
Ga234  Ga  0.583236 -0.000000  0.592593
Ga235  Ga  0.583236 -0.000000  0.666667
Ga236  Ga  0.583236 -0.000000  0.740741
Ga237  Ga  0.583236 -0.000000  0.814815
Ga238  Ga  0.583236 -0.000000  0.888889
Ga239  Ga  0.583236  0.088846  0.000000
Ga240  Ga  0.583236  0.088846  0.962963
Ga241  Ga  0.583236  0.088846  0.074074
Ga242  Ga  0.583236  0.088846  0.148148
Ga243  Ga  0.583236  0.088846  0.222222
Ga244  Ga  0.583236  0.088846  0.296296
Ga245  Ga  0.583236  0.088846  0.370370
Ga246  Ga  0.583236  0.088846  0.444444
Ga247  Ga  0.583236  0.088846  0.518519
Ga248  Ga  0.583236  0.088846  0.592593
Ga249  Ga  0.583236  0.088846  0.666667
Ga250  Ga  0.583236  0.088846  0.740741
Ga251  Ga  0.583236  0.088846  0.814815
Ga252  Ga  0.583236  0.088846  0.888889
Ga253  Ga  0.583236  0.177691  0.000000
Ga254  Ga  0.583236  0.177691  0.962963
Ga255  Ga  0.583236  0.177691  0.074074
Ga256  Ga  0.583236  0.177691  0.148148
Ga257  Ga  0.583236  0.177691  0.222222
Ga258  Ga  0.583236  0.177691  0.296296
Ga259  Ga  0.583236  0.177691  0.370370
Ga260  Ga  0.583236  0.177691  0.444444
Ga261  Ga  0.583236  0.177691  0.518519
Ga262  Ga  0.583236  0.177691  0.592593
Ga263  Ga  0.583236  0.177691  0.666667
Ga264  Ga  0.583236  0.177691  0.740741
Ga265  Ga  0.583236  0.177691  0.814815
Ga266  Ga  0.583236  0.177691  0.888889
Ga267  Ga  0.583236  0.266537  0.000000
Ga268  Ga  0.583236  0.266537  0.962963
Ga269  Ga  0.583236  0.266537  0.074074
Ga270  Ga  0.583236  0.266537  0.148148
Ga271  Ga  0.583236  0.266537  0.222222
Ga272  Ga  0.583236  0.266537  0.296296
Ga273  Ga  0.583236  0.266537  0.370370
Ga274  Ga  0.583236  0.266537  0.444444
Ga275  Ga  0.583236  0.266537  0.518519
Ga276  Ga  0.583236  0.266537  0.592593
Ga277  Ga  0.583236  0.266537  0.666667
Ga278  Ga  0.583236  0.266537  0.740741
Ga279  Ga  0.583236  0.266537  0.814815
Ga280  Ga  0.583236  0.266537  0.888889
Ga281  Ga  0.583236  0.355382  0.000000
Ga282  Ga  0.583236  0.355382  0.962963
Ga283  Ga  0.583236  0.355382  0.074074
Ga284  Ga  0.583236  0.355382  0.148148
Ga285  Ga  0.583236  0.355382  0.222222
Ga286  Ga  0.583236  0.355382  0.296296
Ga287  Ga  0.583236  0.355382  0.370370
Ga288  Ga  0.583236  0.355382  0.444444
Ga289  Ga  0.583236  0.355382  0.518519
Ga290  Ga  0.583236  0.355382  0.592593
Ga291  Ga  0.583236  0.355382  0.666667
Ga292  Ga  0.583236  0.355382  0.740741
Ga293  Ga  0.583236  0.355382  0.814815
Ga294  Ga  0.583236  0.355382  0.888889
Ga295  Ga  0.583236  0.444228  0.000000
Ga296  Ga  0.583236  0.444228  0.962963
Ga297  Ga  0.583236  0.444228  0.074074
Ga298  Ga  0.583236  0.444228  0.148148
Ga299  Ga  0.583236  0.444228  0.222222
Ga300  Ga  0.583236  0.444228  0.296296
Ga301  Ga  0.583236  0.444228  0.370370
Ga302  Ga  0.583236  0.444228  0.444444
Ga303  Ga  0.583236  0.444228  0.518519
Ga304  Ga  0.583236  0.444228  0.592593
Ga305  Ga  0.583236  0.444228  0.666667
Ga306  Ga  0.583236  0.444228  0.740741
Ga307  Ga  0.583236  0.444228  0.814815
Ga308  Ga  0.583236  0.444228  0.888889
Ga309  Ga  0.583236  0.533073  0.000000
Ga310  Ga  0.583236  0.533073  0.962963
Ga311  Ga  0.583236  0.533073  0.074074
Ga312  Ga  0.583236  0.533073  0.148148
Ga313  Ga  0.583236  0.533073  0.222222
Ga314  Ga  0.583236  0.533073  0.296296
Ga315  Ga  0.583236  0.533073  0.370370
Ga316  Ga  0.583236  0.533073  0.444444
Ga317  Ga  0.583236  0.533073  0.518519
Ga318  Ga  0.583236  0.533073  0.592593
Ga319  Ga  0.583236  0.533073  0.666667
Ga320  Ga  0.583236  0.533073  0.740741
Ga321  Ga  0.583236  0.533073  0.814815
Ga322  Ga  0.583236  0.533073  0.888889
Ga323  Ga  0.583236  0.621919  0.000000
Ga324  Ga  0.583236  0.621919  0.962963
Ga325  Ga  0.583236  0.621919  0.074074
Ga326  Ga  0.583236  0.621919  0.148148
Ga327  Ga  0.583236  0.621919  0.222222
Ga328  Ga  0.583236  0.621919  0.296296
Ga329  Ga  0.583236  0.621919  0.370370
Ga330  Ga  0.583236  0.621919  0.444444
Ga331  Ga  0.583236  0.621919  0.518519
Ga332  Ga  0.583236  0.621919  0.592593
Ga333  Ga  0.583236  0.621919  0.666667
Ga334  Ga  0.583236  0.621919  0.740741
Ga335  Ga  0.583236  0.621919  0.814815
Ga336  Ga  0.583236  0.621919  0.888889
Ga337  Ga  0.583236  0.710764  0.000000
Ga338  Ga  0.583236  0.710764  0.962963
Ga339  Ga  0.583236  0.710764  0.074074
Ga340  Ga  0.583236  0.710764  0.148148
Ga341  Ga  0.583236  0.710764  0.222222
Ga342  Ga  0.583236  0.710764  0.296296
Ga343  Ga  0.583236  0.710764  0.370370
Ga344  Ga  0.583236  0.710764  0.444444
Ga345  Ga  0.583236  0.710764  0.518519
Ga346  Ga  0.583236  0.710764  0.592593
Ga347  Ga  0.583236  0.710764  0.666667
Ga348  Ga  0.583236  0.710764  0.740741
Ga349  Ga  0.583236  0.710764  0.814815
Ga350  Ga  0.583236  0.710764  0.888889
Ga351  Ga  0.583236  0.799610  0.000000
Ga352  Ga  0.583236  0.799610  0.962963
Ga353  Ga  0.583236  0.799610  0.074074
Ga354  Ga  0.583236  0.799610  0.148148
Ga355  Ga  0.583236  0.799610  0.222222
Ga356  Ga  0.583236  0.799610  0.296296
Ga357  Ga  0.583236  0.799610  0.370370
Ga358  Ga  0.583236  0.799610  0.444444
Ga359  Ga  0.583236  0.799610  0.518519
Ga360  Ga  0.583236  0.799610  0.592593
Ga361  Ga  0.583236  0.799610  0.666667
Ga362  Ga  0.583236  0.799610  0.740741
Ga363  Ga  0.583236  0.799610  0.814815
Ga364  Ga  0.583236  0.799610  0.888889
Ga365  Ga  0.583236  0.888455  0.000000
Ga366  Ga  0.583236  0.888455  0.962963
Ga367  Ga  0.583236  0.888455  0.074074
Ga368  Ga  0.583236  0.888455  0.148148
Ga369  Ga  0.583236  0.888455  0.222222
Ga370  Ga  0.583236  0.888455  0.296296
Ga371  Ga  0.583236  0.888455  0.370370
Ga372  Ga  0.583236  0.888455  0.444444
Ga373  Ga  0.583236  0.888455  0.518519
Ga374  Ga  0.583236  0.888455  0.592593
Ga375  Ga  0.583236  0.888455  0.666667
Ga376  Ga  0.583236  0.888455  0.740741
Ga377  Ga  0.583236  0.888455  0.814815
Ga378  Ga  0.583236  0.888455  0.888889
Ga379  Ga  0.717829  0.000000  0.000000
Ga380  Ga  0.717829 -0.000000  0.962963
Ga381  Ga  0.717829 -0.000000  0.074074
Ga382  Ga  0.717829 -0.000000  0.148148
Ga383  Ga  0.717829 -0.000000  0.222222
Ga384  Ga  0.717829 -0.000000  0.296296
Ga385  Ga  0.717829 -0.000000  0.370370
Ga386  Ga  0.717829 -0.000000  0.444444
Ga387  Ga  0.717829 -0.000000  0.518519
Ga388  Ga  0.717829 -0.000000  0.592593
Ga389  Ga  0.717829 -0.000000  0.666667
Ga390  Ga  0.717829 -0.000000  0.740741
Ga391  Ga  0.717829 -0.000000  0.814815
Ga392  Ga  0.717829 -0.000000  0.888889
Ga393  Ga  0.717829  0.088846  0.000000
Ga394  Ga  0.717829  0.088846  0.962963
Ga395  Ga  0.717829  0.088846  0.074074
Ga396  Ga  0.717829  0.088846  0.148148
Ga397  Ga  0.717829  0.088846  0.222222
Ga398  Ga  0.717829  0.088846  0.296296
Ga399  Ga  0.717829  0.088846  0.370370
Ga400  Ga  0.717829  0.088846  0.444444
Ga401  Ga  0.717829  0.088846  0.518519
Ga402  Ga  0.717829  0.088846  0.592593
Ga403  Ga  0.717829  0.088846  0.666667
Ga404  Ga  0.717829  0.088846  0.740741
Ga405  Ga  0.717829  0.088846  0.814815
Ga406  Ga  0.717829  0.088846  0.888889
Ga407  Ga  0.717829  0.177691  0.000000
Ga408  Ga  0.717829  0.177691  0.962963
Ga409  Ga  0.717829  0.177691  0.074074
Ga410  Ga  0.717829  0.177691  0.148148
Ga411  Ga  0.717829  0.177691  0.222222
Ga412  Ga  0.717829  0.177691  0.296296
Ga413  Ga  0.717829  0.177691  0.370370
Ga414  Ga  0.717829  0.177691  0.444444
Ga415  Ga  0.717829  0.177691  0.518519
Ga416  Ga  0.717829  0.177691  0.592593
Ga417  Ga  0.717829  0.177691  0.666667
Ga418  Ga  0.717829  0.177691  0.740741
Ga419  Ga  0.717829  0.177691  0.814815
Ga420  Ga  0.717829  0.177691  0.888889
Ga421  Ga  0.717829  0.266537  0.000000
Ga422  Ga  0.717829  0.266537  0.962963
Ga423  Ga  0.717829  0.266537  0.074074
Ga424  Ga  0.717829  0.266537  0.148148
Ga425  Ga  0.717829  0.266537  0.222222
Ga426  Ga  0.717829  0.266537  0.296296
Ga427  Ga  0.717829  0.266537  0.370370
Ga428  Ga  0.717829  0.266537  0.444444
Ga429  Ga  0.717829  0.266537  0.518519
Ga430  Ga  0.717829  0.266537  0.592593
Ga431  Ga  0.717829  0.266537  0.666667
Ga432  Ga  0.717829  0.266537  0.740741
Ga433  Ga  0.717829  0.266537  0.814815
Ga434  Ga  0.717829  0.266537  0.888889
Ga435  Ga  0.717829  0.355382  0.000000
Ga436  Ga  0.717829  0.355382  0.962963
Ga437  Ga  0.717829  0.355382  0.074074
Ga438  Ga  0.717829  0.355382  0.148148
Ga439  Ga  0.717829  0.355382  0.222222
Ga440  Ga  0.717829  0.355382  0.296296
Ga441  Ga  0.717829  0.355382  0.370370
Ga442  Ga  0.717829  0.355382  0.444444
Ga443  Ga  0.717829  0.355382  0.518519
Ga444  Ga  0.717829  0.355382  0.592593
Ga445  Ga  0.717829  0.355382  0.666667
Ga446  Ga  0.717829  0.355382  0.740741
Ga447  Ga  0.717829  0.355382  0.814815
Ga448  Ga  0.717829  0.355382  0.888889
Ga449  Ga  0.717829  0.444228  0.000000
Ga450  Ga  0.717829  0.444228  0.962963
Ga451  Ga  0.717829  0.444228  0.074074
Ga452  Ga  0.717829  0.444228  0.148148
Ga453  Ga  0.717829  0.444228  0.222222
Ga454  Ga  0.717829  0.444228  0.296296
Ga455  Ga  0.717829  0.444228  0.370370
Ga456  Ga  0.717829  0.444228  0.444444
Ga457  Ga  0.717829  0.444228  0.518519
Ga458  Ga  0.717829  0.444228  0.592593
Ga459  Ga  0.717829  0.444228  0.666667
Ga460  Ga  0.717829  0.444228  0.740741
Ga461  Ga  0.717829  0.444228  0.814815
Ga462  Ga  0.717829  0.444228  0.888889
Ga463  Ga  0.717829  0.533073  0.000000
Ga464  Ga  0.717829  0.533073  0.962963
Ga465  Ga  0.717829  0.533073  0.074074
Ga466  Ga  0.717829  0.533073  0.148148
Ga467  Ga  0.717829  0.533073  0.222222
Ga468  Ga  0.717829  0.533073  0.296296
Ga469  Ga  0.717829  0.533073  0.370370
Ga470  Ga  0.717829  0.533073  0.444444
Ga471  Ga  0.717829  0.533073  0.518519
Ga472  Ga  0.717829  0.533073  0.592593
Ga473  Ga  0.717829  0.533073  0.666667
Ga474  Ga  0.717829  0.533073  0.740741
Ga475  Ga  0.717829  0.533073  0.814815
Ga476  Ga  0.717829  0.533073  0.888889
Ga477  Ga  0.717829  0.621919  0.000000
Ga478  Ga  0.717829  0.621919  0.962963
Ga479  Ga  0.717829  0.621919  0.074074
Ga480  Ga  0.717829  0.621919  0.148148
Ga481  Ga  0.717829  0.621919  0.222222
Ga482  Ga  0.717829  0.621919  0.296296
Ga483  Ga  0.717829  0.621919  0.370370
Ga484  Ga  0.717829  0.621919  0.444444
Ga485  Ga  0.717829  0.621919  0.518519
Ga486  Ga  0.717829  0.621919  0.592593
Ga487  Ga  0.717829  0.621919  0.666667
Ga488  Ga  0.717829  0.621919  0.740741
Ga489  Ga  0.717829  0.621919  0.814815
Ga490  Ga  0.717829  0.621919  0.888889
Ga491  Ga  0.717829  0.710764  0.000000
Ga492  Ga  0.717829  0.710764  0.962963
Ga493  Ga  0.717829  0.710764  0.074074
Ga494  Ga  0.717829  0.710764  0.148148
Ga495  Ga  0.717829  0.710764  0.222222
Ga496  Ga  0.717829  0.710764  0.296296
Ga497  Ga  0.717829  0.710764  0.370370
Ga498  Ga  0.717829  0.710764  0.444444
Ga499  Ga  0.717829  0.710764  0.518519
Ga500  Ga  0.717829  0.710764  0.592593
Ga501  Ga  0.717829  0.710764  0.666667
Ga502  Ga  0.717829  0.710764  0.740741
Ga503  Ga  0.717829  0.710764  0.814815
Ga504  Ga  0.717829  0.710764  0.888889
Ga505  Ga  0.717829  0.799610  0.000000
Ga506  Ga  0.717829  0.799610  0.962963
Ga507  Ga  0.717829  0.799610  0.074074
Ga508  Ga  0.717829  0.799610  0.148148
Ga509  Ga  0.717829  0.799610  0.222222
Ga510  Ga  0.717829  0.799610  0.296296
Ga511  Ga  0.717829  0.799610  0.370370
Ga512  Ga  0.717829  0.799610  0.444444
Ga513  Ga  0.717829  0.799610  0.518519
Ga514  Ga  0.717829  0.799610  0.592593
Ga515  Ga  0.717829  0.799610  0.666667
Ga516  Ga  0.717829  0.799610  0.740741
Ga517  Ga  0.717829  0.799610  0.814815
Ga518  Ga  0.717829  0.799610  0.888889
Ga519  Ga  0.717829  0.888455  0.000000
Ga520  Ga  0.717829  0.888455  0.962963
Ga521  Ga  0.717829  0.888455  0.074074
Ga522  Ga  0.717829  0.888455  0.148148
Ga523  Ga  0.717829  0.888455  0.222222
Ga524  Ga  0.717829  0.888455  0.296296
Ga525  Ga  0.717829  0.888455  0.370370
Ga526  Ga  0.717829  0.888455  0.444444
Ga527  Ga  0.717829  0.888455  0.518519
Ga528  Ga  0.717829  0.888455  0.592593
Ga529  Ga  0.717829  0.888455  0.666667
Ga530  Ga  0.717829  0.888455  0.740741
Ga531  Ga  0.717829  0.888455  0.814815
Ga532  Ga  0.717829  0.888455  0.888889
Ga533  Ga  0.852422  0.000000  0.000000
Ga534  Ga  0.852422 -0.000000  0.962963
Ga535  Ga  0.852422 -0.000000  0.074074
Ga536  Ga  0.852422 -0.000000  0.148148
Ga537  Ga  0.852422 -0.000000  0.222222
Ga538  Ga  0.852422 -0.000000  0.296296
Ga539  Ga  0.852422 -0.000000  0.370370
Ga540  Ga  0.852422 -0.000000  0.444444
Ga541  Ga  0.852422 -0.000000  0.518519
Ga542  Ga  0.852422 -0.000000  0.592593
Ga543  Ga  0.852422 -0.000000  0.666667
Ga544  Ga  0.852422 -0.000000  0.740741
Ga545  Ga  0.852422 -0.000000  0.814815
Ga546  Ga  0.852422 -0.000000  0.888889
Ga547  Ga  0.852422  0.088846  0.000000
Ga548  Ga  0.852422  0.088846  0.962963
Ga549  Ga  0.852422  0.088846  0.074074
Ga550  Ga  0.852422  0.088846  0.148148
Ga551  Ga  0.852422  0.088846  0.222222
Ga552  Ga  0.852422  0.088846  0.296296
Ga553  Ga  0.852422  0.088846  0.370370
Ga554  Ga  0.852422  0.088846  0.444444
Ga555  Ga  0.852422  0.088846  0.518519
Ga556  Ga  0.852422  0.088846  0.592593
Ga557  Ga  0.852422  0.088846  0.666667
Ga558  Ga  0.852422  0.088846  0.740741
Ga559  Ga  0.852422  0.088846  0.814815
Ga560  Ga  0.852422  0.088846  0.888889
Ga561  Ga  0.852422  0.177691  0.000000
Ga562  Ga  0.852422  0.177691  0.962963
Ga563  Ga  0.852422  0.177691  0.074074
Ga564  Ga  0.852422  0.177691  0.148148
Ga565  Ga  0.852422  0.177691  0.222222
Ga566  Ga  0.852422  0.177691  0.296296
Ga567  Ga  0.852422  0.177691  0.370370
Ga568  Ga  0.852422  0.177691  0.444444
Ga569  Ga  0.852422  0.177691  0.518519
Ga570  Ga  0.852422  0.177691  0.592593
Ga571  Ga  0.852422  0.177691  0.666667
Ga572  Ga  0.852422  0.177691  0.740741
Ga573  Ga  0.852422  0.177691  0.814815
Ga574  Ga  0.852422  0.177691  0.888889
Ga575  Ga  0.852422  0.266537  0.000000
Ga576  Ga  0.852422  0.266537  0.962963
Ga577  Ga  0.852422  0.266537  0.074074
Ga578  Ga  0.852422  0.266537  0.148148
Ga579  Ga  0.852422  0.266537  0.222222
Ga580  Ga  0.852422  0.266537  0.296296
Ga581  Ga  0.852422  0.266537  0.370370
Ga582  Ga  0.852422  0.266537  0.444444
Ga583  Ga  0.852422  0.266537  0.518519
Ga584  Ga  0.852422  0.266537  0.592593
Ga585  Ga  0.852422  0.266537  0.666667
Ga586  Ga  0.852422  0.266537  0.740741
Ga587  Ga  0.852422  0.266537  0.814815
Ga588  Ga  0.852422  0.266537  0.888889
Ga589  Ga  0.852422  0.355382  0.000000
Ga590  Ga  0.852422  0.355382  0.962963
Ga591  Ga  0.852422  0.355382  0.074074
Ga592  Ga  0.852422  0.355382  0.148148
Ga593  Ga  0.852422  0.355382  0.222222
Ga594  Ga  0.852422  0.355382  0.296296
Ga595  Ga  0.852422  0.355382  0.370370
Ga596  Ga  0.852422  0.355382  0.444444
Ga597  Ga  0.852422  0.355382  0.518519
Ga598  Ga  0.852422  0.355382  0.592593
Ga599  Ga  0.852422  0.355382  0.666667
Ga600  Ga  0.852422  0.355382  0.740741
Ga601  Ga  0.852422  0.355382  0.814815
Ga602  Ga  0.852422  0.355382  0.888889
Ga603  Ga  0.852422  0.444228  0.000000
Ga604  Ga  0.852422  0.444228  0.962963
Ga605  Ga  0.852422  0.444228  0.074074
Ga606  Ga  0.852422  0.444228  0.148148
Ga607  Ga  0.852422  0.444228  0.222222
Ga608  Ga  0.852422  0.444228  0.296296
Ga609  Ga  0.852422  0.444228  0.370370
Ga610  Ga  0.852422  0.444228  0.444444
Ga611  Ga  0.852422  0.444228  0.518519
Ga612  Ga  0.852422  0.444228  0.592593
Ga613  Ga  0.852422  0.444228  0.666667
Ga614  Ga  0.852422  0.444228  0.740741
Ga615  Ga  0.852422  0.444228  0.814815
Ga616  Ga  0.852422  0.444228  0.888889
Ga617  Ga  0.852422  0.533073  0.000000
Ga618  Ga  0.852422  0.533073  0.962963
Ga619  Ga  0.852422  0.533073  0.074074
Ga620  Ga  0.852422  0.533073  0.148148
Ga621  Ga  0.852422  0.533073  0.222222
Ga622  Ga  0.852422  0.533073  0.296296
Ga623  Ga  0.852422  0.533073  0.370370
Ga624  Ga  0.852422  0.533073  0.444444
Ga625  Ga  0.852422  0.533073  0.518519
Ga626  Ga  0.852422  0.533073  0.592593
Ga627  Ga  0.852422  0.533073  0.666667
Ga628  Ga  0.852422  0.533073  0.740741
Ga629  Ga  0.852422  0.533073  0.814815
Ga630  Ga  0.852422  0.533073  0.888889
Ga631  Ga  0.852422  0.621919  0.000000
Ga632  Ga  0.852422  0.621919  0.962963
Ga633  Ga  0.852422  0.621919  0.074074
Ga634  Ga  0.852422  0.621919  0.148148
Ga635  Ga  0.852422  0.621919  0.222222
Ga636  Ga  0.852422  0.621919  0.296296
Ga637  Ga  0.852422  0.621919  0.370370
Ga638  Ga  0.852422  0.621919  0.444444
Ga639  Ga  0.852422  0.621919  0.518519
Ga640  Ga  0.852422  0.621919  0.592593
Ga641  Ga  0.852422  0.621919  0.666667
Ga642  Ga  0.852422  0.621919  0.740741
Ga643  Ga  0.852422  0.621919  0.814815
Ga644  Ga  0.852422  0.621919  0.888889
Ga645  Ga  0.852422  0.710764  0.000000
Ga646  Ga  0.852422  0.710764  0.962963
Ga647  Ga  0.852422  0.710764  0.074074
Ga648  Ga  0.852422  0.710764  0.148148
Ga649  Ga  0.852422  0.710764  0.222222
Ga650  Ga  0.852422  0.710764  0.296296
Ga651  Ga  0.852422  0.710764  0.370370
Ga652  Ga  0.852422  0.710764  0.444444
Ga653  Ga  0.852422  0.710764  0.518519
Ga654  Ga  0.852422  0.710764  0.592593
Ga655  Ga  0.852422  0.710764  0.666667
Ga656  Ga  0.852422  0.710764  0.740741
Ga657  Ga  0.852422  0.710764  0.814815
Ga658  Ga  0.852422  0.710764  0.888889
Ga659  Ga  0.852422  0.799610  0.000000
Ga660  Ga  0.852422  0.799610  0.962963
Ga661  Ga  0.852422  0.799610  0.074074
Ga662  Ga  0.852422  0.799610  0.148148
Ga663  Ga  0.852422  0.799610  0.222222
Ga664  Ga  0.852422  0.799610  0.296296
Ga665  Ga  0.852422  0.799610  0.370370
Ga666  Ga  0.852422  0.799610  0.444444
Ga667  Ga  0.852422  0.799610  0.518519
Ga668  Ga  0.852422  0.799610  0.592593
Ga669  Ga  0.852422  0.799610  0.666667
Ga670  Ga  0.852422  0.799610  0.740741
Ga671  Ga  0.852422  0.799610  0.814815
Ga672  Ga  0.852422  0.799610  0.888889
Ga673  Ga  0.852422  0.888455  0.000000
Ga674  Ga  0.852422  0.888455  0.962963
Ga675  Ga  0.852422  0.888455  0.074074
Ga676  Ga  0.852422  0.888455  0.148148
Ga677  Ga  0.852422  0.888455  0.222222
Ga678  Ga  0.852422  0.888455  0.296296
Ga679  Ga  0.852422  0.888455  0.370370
Ga680  Ga  0.852422  0.888455  0.444444
Ga681  Ga  0.852422  0.888455  0.518519
Ga682  Ga  0.852422  0.888455  0.592593
Ga683  Ga  0.852422  0.888455  0.666667
Ga684  Ga  0.852422  0.888455  0.740741
Ga685  Ga  0.852422  0.888455  0.814815
Ga686  Ga  0.852422  0.888455  0.888889
Ga687  Ga  0.987016  0.177691  0.000000
Ga688  Ga  0.987016  0.177691  0.962963
Ga689  Ga  0.987016  0.177691  0.074074
Ga690  Ga  0.987016  0.177691  0.148148
Ga691  Ga  0.987016  0.177691  0.222222
Ga692  Ga  0.987016  0.177691  0.296296
Ga693  Ga  0.987016  0.177691  0.370370
Ga694  Ga  0.987016  0.177691  0.444444
Ga695  Ga  0.987016  0.177691  0.518519
Ga696  Ga  0.987016  0.177691  0.592593
Ga697  Ga  0.987016  0.177691  0.666667
Ga698  Ga  0.987016  0.177691  0.740741
Ga699  Ga  0.987016  0.177691  0.814815
Ga700  Ga  0.987016  0.177691  0.888889
Ga701  Ga  0.987016  0.266537  0.000000
Ga702  Ga  0.987016  0.266537  0.962963
Ga703  Ga  0.987016  0.266537  0.074074
Ga704  Ga  0.987016  0.266537  0.148148
Ga705  Ga  0.987016  0.266537  0.222222
Ga706  Ga  0.987016  0.266537  0.296296
Ga707  Ga  0.987016  0.266537  0.370370
Ga708  Ga  0.987016  0.266537  0.444444
Ga709  Ga  0.987016  0.266537  0.518519
Ga710  Ga  0.987016  0.266537  0.592593
Ga711  Ga  0.987016  0.266537  0.666667
Ga712  Ga  0.987016  0.266537  0.740741
Ga713  Ga  0.987016  0.266537  0.814815
Ga714  Ga  0.987016  0.266537  0.888889
Ga715  Ga  0.987016  0.355382  0.000000
Ga716  Ga  0.987016  0.355382  0.962963
Ga717  Ga  0.987016  0.355382  0.074074
Ga718  Ga  0.987016  0.355382  0.148148
Ga719  Ga  0.987016  0.355382  0.222222
Ga720  Ga  0.987016  0.355382  0.296296
Ga721  Ga  0.987016  0.355382  0.370370
Ga722  Ga  0.987016  0.355382  0.444444
Ga723  Ga  0.987016  0.355382  0.518519
Ga724  Ga  0.987016  0.355382  0.592593
Ga725  Ga  0.987016  0.355382  0.666667
Ga726  Ga  0.987016  0.355382  0.740741
Ga727  Ga  0.987016  0.355382  0.814815
Ga728  Ga  0.987016  0.355382  0.888889
Ga729  Ga  0.987016  0.444228  0.000000
Ga730  Ga  0.987016  0.444228  0.962963
Ga731  Ga  0.987016  0.444228  0.074074
Ga732  Ga  0.987016  0.444228  0.148148
Ga733  Ga  0.987016  0.444228  0.222222
Ga734  Ga  0.987016  0.444228  0.296296
Ga735  Ga  0.987016  0.444228  0.370370
Ga736  Ga  0.987016  0.444228  0.444444
Ga737  Ga  0.987016  0.444228  0.518519
Ga738  Ga  0.987016  0.444228  0.592593
Ga739  Ga  0.987016  0.444228  0.666667
Ga740  Ga  0.987016  0.444228  0.740741
Ga741  Ga  0.987016  0.444228  0.814815
Ga742  Ga  0.987016  0.444228  0.888889
Ga743  Ga  0.987016  0.533073  0.000000
Ga744  Ga  0.987016  0.533073  0.962963
Ga745  Ga  0.987016  0.533073  0.074074
Ga746  Ga  0.987016  0.533073  0.148148
Ga747  Ga  0.987016  0.533073  0.222222
Ga748  Ga  0.987016  0.533073  0.296296
Ga749  Ga  0.987016  0.533073  0.370370
Ga750  Ga  0.987016  0.533073  0.444444
Ga751  Ga  0.987016  0.533073  0.518519
Ga752  Ga  0.987016  0.533073  0.592593
Ga753  Ga  0.987016  0.533073  0.666667
Ga754  Ga  0.987016  0.533073  0.740741
Ga755  Ga  0.987016  0.533073  0.814815
Ga756  Ga  0.987016  0.533073  0.888889
Ga757  Ga  0.987016  0.621919  0.000000
Ga758  Ga  0.987016  0.621919  0.962963
Ga759  Ga  0.987016  0.621919  0.074074
Ga760  Ga  0.987016  0.621919  0.148148
Ga761  Ga  0.987016  0.621919  0.222222
Ga762  Ga  0.987016  0.621919  0.296296
Ga763  Ga  0.987016  0.621919  0.370370
Ga764  Ga  0.987016  0.621919  0.444444
Ga765  Ga  0.987016  0.621919  0.518519
Ga766  Ga  0.987016  0.621919  0.592593
Ga767  Ga  0.987016  0.621919  0.666667
Ga768  Ga  0.987016  0.621919  0.740741
Ga769  Ga  0.987016  0.621919  0.814815
Ga770  Ga  0.987016  0.621919  0.888889
Ga771  Ga  0.987016  0.710764  0.000000
Ga772  Ga  0.987016  0.710764  0.962963
Ga773  Ga  0.987016  0.710764  0.074074
Ga774  Ga  0.987016  0.710764  0.148148
Ga775  Ga  0.987016  0.710764  0.222222
Ga776  Ga  0.987016  0.710764  0.296296
Ga777  Ga  0.987016  0.710764  0.370370
Ga778  Ga  0.987016  0.710764  0.444444
Ga779  Ga  0.987016  0.710764  0.518519
Ga780  Ga  0.987016  0.710764  0.592593
Ga781  Ga  0.987016  0.710764  0.666667
Ga782  Ga  0.987016  0.710764  0.740741
Ga783  Ga  0.987016  0.710764  0.814815
Ga784  Ga  0.987016  0.710764  0.888889
Ga785  Ga  1.121609  0.444228  0.000000
Ga786  Ga  1.121609  0.444228  0.962963
Ga787  Ga  1.121609  0.444228  0.074074
Ga788  Ga  1.121609  0.444228  0.148148
Ga789  Ga  1.121609  0.444228  0.222222
Ga790  Ga  1.121609  0.444228  0.296296
Ga791  Ga  1.121609  0.444228  0.370370
Ga792  Ga  1.121609  0.444228  0.444444
Ga793  Ga  1.121609  0.444228  0.518519
Ga794  Ga  1.121609  0.444228  0.592593
Ga795  Ga  1.121609  0.444228  0.666667
Ga796  Ga  1.121609  0.444228  0.740741
Ga797  Ga  1.121609  0.444228  0.814815
Ga798  Ga  1.121609  0.444228  0.888889
Ga799  Ga  0.246754  0.399805  0.000000
Ga800  Ga  0.246754  0.399805  0.962963
Ga801  Ga  0.246754  0.399805  0.074074
Ga802  Ga  0.246754  0.399805  0.148148
Ga803  Ga  0.246754  0.399805  0.222222
Ga804  Ga  0.246754  0.399805  0.296296
Ga805  Ga  0.246754  0.399805  0.370370
Ga806  Ga  0.246754  0.399805  0.444444
Ga807  Ga  0.246754  0.399805  0.518519
Ga808  Ga  0.246754  0.399805  0.592593
Ga809  Ga  0.246754  0.399805  0.666667
Ga810  Ga  0.246754  0.399805  0.740741
Ga811  Ga  0.246754  0.399805  0.814815
Ga812  Ga  0.246754  0.399805  0.888889
Ga813  Ga  0.246754  0.488650  0.000000
Ga814  Ga  0.246754  0.488650  0.962963
Ga815  Ga  0.246754  0.488650  0.074074
Ga816  Ga  0.246754  0.488650  0.148148
Ga817  Ga  0.246754  0.488650  0.222222
Ga818  Ga  0.246754  0.488650  0.296296
Ga819  Ga  0.246754  0.488650  0.370370
Ga820  Ga  0.246754  0.488650  0.444444
Ga821  Ga  0.246754  0.488650  0.518519
Ga822  Ga  0.246754  0.488650  0.592593
Ga823  Ga  0.246754  0.488650  0.666667
Ga824  Ga  0.246754  0.488650  0.740741
Ga825  Ga  0.246754  0.488650  0.814815
Ga826  Ga  0.246754  0.488650  0.888889
Ga827  Ga  0.381347  0.133268  0.000000
Ga828  Ga  0.381347  0.133268  0.962963
Ga829  Ga  0.381347  0.133268  0.074074
Ga830  Ga  0.381347  0.133268  0.148148
Ga831  Ga  0.381347  0.133268  0.222222
Ga832  Ga  0.381347  0.133268  0.296296
Ga833  Ga  0.381347  0.133268  0.370370
Ga834  Ga  0.381347  0.133268  0.444444
Ga835  Ga  0.381347  0.133268  0.518519
Ga836  Ga  0.381347  0.133268  0.592593
Ga837  Ga  0.381347  0.133268  0.666667
Ga838  Ga  0.381347  0.133268  0.740741
Ga839  Ga  0.381347  0.133268  0.814815
Ga840  Ga  0.381347  0.133268  0.888889
Ga841  Ga  0.381347  0.222114  0.000000
Ga842  Ga  0.381347  0.222114  0.962963
Ga843  Ga  0.381347  0.222114  0.074074
Ga844  Ga  0.381347  0.222114  0.148148
Ga845  Ga  0.381347  0.222114  0.222222
Ga846  Ga  0.381347  0.222114  0.296296
Ga847  Ga  0.381347  0.222114  0.370370
Ga848  Ga  0.381347  0.222114  0.444444
Ga849  Ga  0.381347  0.222114  0.518519
Ga850  Ga  0.381347  0.222114  0.592593
Ga851  Ga  0.381347  0.222114  0.666667
Ga852  Ga  0.381347  0.222114  0.740741
Ga853  Ga  0.381347  0.222114  0.814815
Ga854  Ga  0.381347  0.222114  0.888889
Ga855  Ga  0.381347  0.310959  0.000000
Ga856  Ga  0.381347  0.310959  0.962963
Ga857  Ga  0.381347  0.310959  0.074074
Ga858  Ga  0.381347  0.310959  0.148148
Ga859  Ga  0.381347  0.310959  0.222222
Ga860  Ga  0.381347  0.310959  0.296296
Ga861  Ga  0.381347  0.310959  0.370370
Ga862  Ga  0.381347  0.310959  0.444444
Ga863  Ga  0.381347  0.310959  0.518519
Ga864  Ga  0.381347  0.310959  0.592593
Ga865  Ga  0.381347  0.310959  0.666667
Ga866  Ga  0.381347  0.310959  0.740741
Ga867  Ga  0.381347  0.310959  0.814815
Ga868  Ga  0.381347  0.310959  0.888889
Ga869  Ga  0.381347  0.399805  0.000000
Ga870  Ga  0.381347  0.399805  0.962963
Ga871  Ga  0.381347  0.399805  0.074074
Ga872  Ga  0.381347  0.399805  0.148148
Ga873  Ga  0.381347  0.399805  0.222222
Ga874  Ga  0.381347  0.399805  0.296296
Ga875  Ga  0.381347  0.399805  0.370370
Ga876  Ga  0.381347  0.399805  0.444444
Ga877  Ga  0.381347  0.399805  0.518519
Ga878  Ga  0.381347  0.399805  0.592593
Ga879  Ga  0.381347  0.399805  0.666667
Ga880  Ga  0.381347  0.399805  0.740741
Ga881  Ga  0.381347  0.399805  0.814815
Ga882  Ga  0.381347  0.399805  0.888889
Ga883  Ga  0.381347  0.488650  0.000000
Ga884  Ga  0.381347  0.488650  0.962963
Ga885  Ga  0.381347  0.488650  0.074074
Ga886  Ga  0.381347  0.488650  0.148148
Ga887  Ga  0.381347  0.488650  0.222222
Ga888  Ga  0.381347  0.488650  0.296296
Ga889  Ga  0.381347  0.488650  0.370370
Ga890  Ga  0.381347  0.488650  0.444444
Ga891  Ga  0.381347  0.488650  0.518519
Ga892  Ga  0.381347  0.488650  0.592593
Ga893  Ga  0.381347  0.488650  0.666667
Ga894  Ga  0.381347  0.488650  0.740741
Ga895  Ga  0.381347  0.488650  0.814815
Ga896  Ga  0.381347  0.488650  0.888889
Ga897  Ga  0.381347  0.577496  0.000000
Ga898  Ga  0.381347  0.577496  0.962963
Ga899  Ga  0.381347  0.577496  0.074074
Ga900  Ga  0.381347  0.577496  0.148148
Ga901  Ga  0.381347  0.577496  0.222222
Ga902  Ga  0.381347  0.577496  0.296296
Ga903  Ga  0.381347  0.577496  0.370370
Ga904  Ga  0.381347  0.577496  0.444444
Ga905  Ga  0.381347  0.577496  0.518519
Ga906  Ga  0.381347  0.577496  0.592593
Ga907  Ga  0.381347  0.577496  0.666667
Ga908  Ga  0.381347  0.577496  0.740741
Ga909  Ga  0.381347  0.577496  0.814815
Ga910  Ga  0.381347  0.577496  0.888889
Ga911  Ga  0.381347  0.666341  0.000000
Ga912  Ga  0.381347  0.666341  0.962963
Ga913  Ga  0.381347  0.666341  0.074074
Ga914  Ga  0.381347  0.666341  0.148148
Ga915  Ga  0.381347  0.666341  0.222222
Ga916  Ga  0.381347  0.666341  0.296296
Ga917  Ga  0.381347  0.666341  0.370370
Ga918  Ga  0.381347  0.666341  0.444444
Ga919  Ga  0.381347  0.666341  0.518519
Ga920  Ga  0.381347  0.666341  0.592593
Ga921  Ga  0.381347  0.666341  0.666667
Ga922  Ga  0.381347  0.666341  0.740741
Ga923  Ga  0.381347  0.666341  0.814815
Ga924  Ga  0.381347  0.666341  0.888889
Ga925  Ga  0.381347  0.755187  0.000000
Ga926  Ga  0.381347  0.755187  0.962963
Ga927  Ga  0.381347  0.755187  0.074074
Ga928  Ga  0.381347  0.755187  0.148148
Ga929  Ga  0.381347  0.755187  0.222222
Ga930  Ga  0.381347  0.755187  0.296296
Ga931  Ga  0.381347  0.755187  0.370370
Ga932  Ga  0.381347  0.755187  0.444444
Ga933  Ga  0.381347  0.755187  0.518519
Ga934  Ga  0.381347  0.755187  0.592593
Ga935  Ga  0.381347  0.755187  0.666667
Ga936  Ga  0.381347  0.755187  0.740741
Ga937  Ga  0.381347  0.755187  0.814815
Ga938  Ga  0.381347  0.755187  0.888889
Ga939  Ga  0.515940  0.044423  0.000000
Ga940  Ga  0.515940  0.044423  0.962963
Ga941  Ga  0.515940  0.044423  0.074074
Ga942  Ga  0.515940  0.044423  0.148148
Ga943  Ga  0.515940  0.044423  0.222222
Ga944  Ga  0.515940  0.044423  0.296296
Ga945  Ga  0.515940  0.044423  0.370370
Ga946  Ga  0.515940  0.044423  0.444444
Ga947  Ga  0.515940  0.044423  0.518519
Ga948  Ga  0.515940  0.044423  0.592593
Ga949  Ga  0.515940  0.044423  0.666667
Ga950  Ga  0.515940  0.044423  0.740741
Ga951  Ga  0.515940  0.044423  0.814815
Ga952  Ga  0.515940  0.044423  0.888889
Ga953  Ga  0.515940  0.133268  0.000000
Ga954  Ga  0.515940  0.133268  0.962963
Ga955  Ga  0.515940  0.133268  0.074074
Ga956  Ga  0.515940  0.133268  0.148148
Ga957  Ga  0.515940  0.133268  0.222222
Ga958  Ga  0.515940  0.133268  0.296296
Ga959  Ga  0.515940  0.133268  0.370370
Ga960  Ga  0.515940  0.133268  0.444444
Ga961  Ga  0.515940  0.133268  0.518519
Ga962  Ga  0.515940  0.133268  0.592593
Ga963  Ga  0.515940  0.133268  0.666667
Ga964  Ga  0.515940  0.133268  0.740741
Ga965  Ga  0.515940  0.133268  0.814815
Ga966  Ga  0.515940  0.133268  0.888889
Ga967  Ga  0.515940  0.222114  0.000000
Ga968  Ga  0.515940  0.222114  0.962963
Ga969  Ga  0.515940  0.222114  0.074074
Ga970  Ga  0.515940  0.222114  0.148148
Ga971  Ga  0.515940  0.222114  0.222222
Ga972  Ga  0.515940  0.222114  0.296296
Ga973  Ga  0.515940  0.222114  0.370370
Ga974  Ga  0.515940  0.222114  0.444444
Ga975  Ga  0.515940  0.222114  0.518519
Ga976  Ga  0.515940  0.222114  0.592593
Ga977  Ga  0.515940  0.222114  0.666667
Ga978  Ga  0.515940  0.222114  0.740741
Ga979  Ga  0.515940  0.222114  0.814815
Ga980  Ga  0.515940  0.222114  0.888889
Ga981  Ga  0.515940  0.310959  0.000000
Ga982  Ga  0.515940  0.310959  0.962963
Ga983  Ga  0.515940  0.310959  0.074074
Ga984  Ga  0.515940  0.310959  0.148148
Ga985  Ga  0.515940  0.310959  0.222222
Ga986  Ga  0.515940  0.310959  0.296296
Ga987  Ga  0.515940  0.310959  0.370370
Ga988  Ga  0.515940  0.310959  0.444444
Ga989  Ga  0.515940  0.310959  0.518519
Ga990  Ga  0.515940  0.310959  0.592593
Ga991  Ga  0.515940  0.310959  0.666667
Ga992  Ga  0.515940  0.310959  0.740741
Ga993  Ga  0.515940  0.310959  0.814815
Ga994  Ga  0.515940  0.310959  0.888889
Ga995  Ga  0.515940  0.399805  0.000000
Ga996  Ga  0.515940  0.399805  0.962963
Ga997  Ga  0.515940  0.399805  0.074074
Ga998  Ga  0.515940  0.399805  0.148148
Ga999  Ga  0.515940  0.399805  0.222222
Ga1000  Ga  0.515940  0.399805  0.296296
Ga1001  Ga  0.515940  0.399805  0.370370
Ga1002  Ga  0.515940  0.399805  0.444444
Ga1003  Ga  0.515940  0.399805  0.518519
Ga1004  Ga  0.515940  0.399805  0.592593
Ga1005  Ga  0.515940  0.399805  0.666667
Ga1006  Ga  0.515940  0.399805  0.740741
Ga1007  Ga  0.515940  0.399805  0.814815
Ga1008  Ga  0.515940  0.399805  0.888889
Ga1009  Ga  0.515940  0.488650  0.000000
Ga1010  Ga  0.515940  0.488650  0.962963
Ga1011  Ga  0.515940  0.488650  0.074074
Ga1012  Ga  0.515940  0.488650  0.148148
Ga1013  Ga  0.515940  0.488650  0.222222
Ga1014  Ga  0.515940  0.488650  0.296296
Ga1015  Ga  0.515940  0.488650  0.370370
Ga1016  Ga  0.515940  0.488650  0.444444
Ga1017  Ga  0.515940  0.488650  0.518519
Ga1018  Ga  0.515940  0.488650  0.592593
Ga1019  Ga  0.515940  0.488650  0.666667
Ga1020  Ga  0.515940  0.488650  0.740741
Ga1021  Ga  0.515940  0.488650  0.814815
Ga1022  Ga  0.515940  0.488650  0.888889
Ga1023  Ga  0.515940  0.577496  0.000000
Ga1024  Ga  0.515940  0.577496  0.962963
Ga1025  Ga  0.515940  0.577496  0.074074
Ga1026  Ga  0.515940  0.577496  0.148148
Ga1027  Ga  0.515940  0.577496  0.222222
Ga1028  Ga  0.515940  0.577496  0.296296
Ga1029  Ga  0.515940  0.577496  0.370370
Ga1030  Ga  0.515940  0.577496  0.444444
Ga1031  Ga  0.515940  0.577496  0.518519
Ga1032  Ga  0.515940  0.577496  0.592593
Ga1033  Ga  0.515940  0.577496  0.666667
Ga1034  Ga  0.515940  0.577496  0.740741
Ga1035  Ga  0.515940  0.577496  0.814815
Ga1036  Ga  0.515940  0.577496  0.888889
Ga1037  Ga  0.515940  0.666341  0.000000
Ga1038  Ga  0.515940  0.666341  0.962963
Ga1039  Ga  0.515940  0.666341  0.074074
Ga1040  Ga  0.515940  0.666341  0.148148
Ga1041  Ga  0.515940  0.666341  0.222222
Ga1042  Ga  0.515940  0.666341  0.296296
Ga1043  Ga  0.515940  0.666341  0.370370
Ga1044  Ga  0.515940  0.666341  0.444444
Ga1045  Ga  0.515940  0.666341  0.518519
Ga1046  Ga  0.515940  0.666341  0.592593
Ga1047  Ga  0.515940  0.666341  0.666667
Ga1048  Ga  0.515940  0.666341  0.740741
Ga1049  Ga  0.515940  0.666341  0.814815
Ga1050  Ga  0.515940  0.666341  0.888889
Ga1051  Ga  0.515940  0.755187  0.000000
Ga1052  Ga  0.515940  0.755187  0.962963
Ga1053  Ga  0.515940  0.755187  0.074074
Ga1054  Ga  0.515940  0.755187  0.148148
Ga1055  Ga  0.515940  0.755187  0.222222
Ga1056  Ga  0.515940  0.755187  0.296296
Ga1057  Ga  0.515940  0.755187  0.370370
Ga1058  Ga  0.515940  0.755187  0.444444
Ga1059  Ga  0.515940  0.755187  0.518519
Ga1060  Ga  0.515940  0.755187  0.592593
Ga1061  Ga  0.515940  0.755187  0.666667
Ga1062  Ga  0.515940  0.755187  0.740741
Ga1063  Ga  0.515940  0.755187  0.814815
Ga1064  Ga  0.515940  0.755187  0.888889
Ga1065  Ga  0.515940  0.844032  0.000000
Ga1066  Ga  0.515940  0.844032  0.962963
Ga1067  Ga  0.515940  0.844032  0.074074
Ga1068  Ga  0.515940  0.844032  0.148148
Ga1069  Ga  0.515940  0.844032  0.222222
Ga1070  Ga  0.515940  0.844032  0.296296
Ga1071  Ga  0.515940  0.844032  0.370370
Ga1072  Ga  0.515940  0.844032  0.444444
Ga1073  Ga  0.515940  0.844032  0.518519
Ga1074  Ga  0.515940  0.844032  0.592593
Ga1075  Ga  0.515940  0.844032  0.666667
Ga1076  Ga  0.515940  0.844032  0.740741
Ga1077  Ga  0.515940  0.844032  0.814815
Ga1078  Ga  0.515940  0.844032  0.888889
Ga1079  Ga  0.650533  0.044423  0.000000
Ga1080  Ga  0.650533  0.044423  0.962963
Ga1081  Ga  0.650533  0.044423  0.074074
Ga1082  Ga  0.650533  0.044423  0.148148
Ga1083  Ga  0.650533  0.044423  0.222222
Ga1084  Ga  0.650533  0.044423  0.296296
Ga1085  Ga  0.650533  0.044423  0.370370
Ga1086  Ga  0.650533  0.044423  0.444444
Ga1087  Ga  0.650533  0.044423  0.518519
Ga1088  Ga  0.650533  0.044423  0.592593
Ga1089  Ga  0.650533  0.044423  0.666667
Ga1090  Ga  0.650533  0.044423  0.740741
Ga1091  Ga  0.650533  0.044423  0.814815
Ga1092  Ga  0.650533  0.044423  0.888889
Ga1093  Ga  0.650533  0.133268  0.000000
Ga1094  Ga  0.650533  0.133268  0.962963
Ga1095  Ga  0.650533  0.133268  0.074074
Ga1096  Ga  0.650533  0.133268  0.148148
Ga1097  Ga  0.650533  0.133268  0.222222
Ga1098  Ga  0.650533  0.133268  0.296296
Ga1099  Ga  0.650533  0.133268  0.370370
Ga1100  Ga  0.650533  0.133268  0.444444
Ga1101  Ga  0.650533  0.133268  0.518519
Ga1102  Ga  0.650533  0.133268  0.592593
Ga1103  Ga  0.650533  0.133268  0.666667
Ga1104  Ga  0.650533  0.133268  0.740741
Ga1105  Ga  0.650533  0.133268  0.814815
Ga1106  Ga  0.650533  0.133268  0.888889
Ga1107  Ga  0.650533  0.222114  0.000000
Ga1108  Ga  0.650533  0.222114  0.962963
Ga1109  Ga  0.650533  0.222114  0.074074
Ga1110  Ga  0.650533  0.222114  0.148148
Ga1111  Ga  0.650533  0.222114  0.222222
Ga1112  Ga  0.650533  0.222114  0.296296
Ga1113  Ga  0.650533  0.222114  0.370370
Ga1114  Ga  0.650533  0.222114  0.444444
Ga1115  Ga  0.650533  0.222114  0.518519
Ga1116  Ga  0.650533  0.222114  0.592593
Ga1117  Ga  0.650533  0.222114  0.666667
Ga1118  Ga  0.650533  0.222114  0.740741
Ga1119  Ga  0.650533  0.222114  0.814815
Ga1120  Ga  0.650533  0.222114  0.888889
Ga1121  Ga  0.650533  0.310959  0.000000
Ga1122  Ga  0.650533  0.310959  0.962963
Ga1123  Ga  0.650533  0.310959  0.074074
Ga1124  Ga  0.650533  0.310959  0.148148
Ga1125  Ga  0.650533  0.310959  0.222222
Ga1126  Ga  0.650533  0.310959  0.296296
Ga1127  Ga  0.650533  0.310959  0.370370
Ga1128  Ga  0.650533  0.310959  0.444444
Ga1129  Ga  0.650533  0.310959  0.518519
Ga1130  Ga  0.650533  0.310959  0.592593
Ga1131  Ga  0.650533  0.310959  0.666667
Ga1132  Ga  0.650533  0.310959  0.740741
Ga1133  Ga  0.650533  0.310959  0.814815
Ga1134  Ga  0.650533  0.310959  0.888889
Ga1135  Ga  0.650533  0.399805  0.000000
Ga1136  Ga  0.650533  0.399805  0.962963
Ga1137  Ga  0.650533  0.399805  0.074074
Ga1138  Ga  0.650533  0.399805  0.148148
Ga1139  Ga  0.650533  0.399805  0.222222
Ga1140  Ga  0.650533  0.399805  0.296296
Ga1141  Ga  0.650533  0.399805  0.370370
Ga1142  Ga  0.650533  0.399805  0.444444
Ga1143  Ga  0.650533  0.399805  0.518519
Ga1144  Ga  0.650533  0.399805  0.592593
Ga1145  Ga  0.650533  0.399805  0.666667
Ga1146  Ga  0.650533  0.399805  0.740741
Ga1147  Ga  0.650533  0.399805  0.814815
Ga1148  Ga  0.650533  0.399805  0.888889
Ga1149  Ga  0.650533  0.488650  0.000000
Ga1150  Ga  0.650533  0.488650  0.962963
Ga1151  Ga  0.650533  0.488650  0.074074
Ga1152  Ga  0.650533  0.488650  0.148148
Ga1153  Ga  0.650533  0.488650  0.222222
Ga1154  Ga  0.650533  0.488650  0.296296
Ga1155  Ga  0.650533  0.488650  0.370370
Ga1156  Ga  0.650533  0.488650  0.444444
Ga1157  Ga  0.650533  0.488650  0.518519
Ga1158  Ga  0.650533  0.488650  0.592593
Ga1159  Ga  0.650533  0.488650  0.666667
Ga1160  Ga  0.650533  0.488650  0.740741
Ga1161  Ga  0.650533  0.488650  0.814815
Ga1162  Ga  0.650533  0.488650  0.888889
Ga1163  Ga  0.650533  0.577496  0.000000
Ga1164  Ga  0.650533  0.577496  0.962963
Ga1165  Ga  0.650533  0.577496  0.074074
Ga1166  Ga  0.650533  0.577496  0.148148
Ga1167  Ga  0.650533  0.577496  0.222222
Ga1168  Ga  0.650533  0.577496  0.296296
Ga1169  Ga  0.650533  0.577496  0.370370
Ga1170  Ga  0.650533  0.577496  0.444444
Ga1171  Ga  0.650533  0.577496  0.518519
Ga1172  Ga  0.650533  0.577496  0.592593
Ga1173  Ga  0.650533  0.577496  0.666667
Ga1174  Ga  0.650533  0.577496  0.740741
Ga1175  Ga  0.650533  0.577496  0.814815
Ga1176  Ga  0.650533  0.577496  0.888889
Ga1177  Ga  0.650533  0.666341  0.000000
Ga1178  Ga  0.650533  0.666341  0.962963
Ga1179  Ga  0.650533  0.666341  0.074074
Ga1180  Ga  0.650533  0.666341  0.148148
Ga1181  Ga  0.650533  0.666341  0.222222
Ga1182  Ga  0.650533  0.666341  0.296296
Ga1183  Ga  0.650533  0.666341  0.370370
Ga1184  Ga  0.650533  0.666341  0.444444
Ga1185  Ga  0.650533  0.666341  0.518519
Ga1186  Ga  0.650533  0.666341  0.592593
Ga1187  Ga  0.650533  0.666341  0.666667
Ga1188  Ga  0.650533  0.666341  0.740741
Ga1189  Ga  0.650533  0.666341  0.814815
Ga1190  Ga  0.650533  0.666341  0.888889
Ga1191  Ga  0.650533  0.755187  0.000000
Ga1192  Ga  0.650533  0.755187  0.962963
Ga1193  Ga  0.650533  0.755187  0.074074
Ga1194  Ga  0.650533  0.755187  0.148148
Ga1195  Ga  0.650533  0.755187  0.222222
Ga1196  Ga  0.650533  0.755187  0.296296
Ga1197  Ga  0.650533  0.755187  0.370370
Ga1198  Ga  0.650533  0.755187  0.444444
Ga1199  Ga  0.650533  0.755187  0.518519
Ga1200  Ga  0.650533  0.755187  0.592593
Ga1201  Ga  0.650533  0.755187  0.666667
Ga1202  Ga  0.650533  0.755187  0.740741
Ga1203  Ga  0.650533  0.755187  0.814815
Ga1204  Ga  0.650533  0.755187  0.888889
Ga1205  Ga  0.650533  0.844032  0.000000
Ga1206  Ga  0.650533  0.844032  0.962963
Ga1207  Ga  0.650533  0.844032  0.074074
Ga1208  Ga  0.650533  0.844032  0.148148
Ga1209  Ga  0.650533  0.844032  0.222222
Ga1210  Ga  0.650533  0.844032  0.296296
Ga1211  Ga  0.650533  0.844032  0.370370
Ga1212  Ga  0.650533  0.844032  0.444444
Ga1213  Ga  0.650533  0.844032  0.518519
Ga1214  Ga  0.650533  0.844032  0.592593
Ga1215  Ga  0.650533  0.844032  0.666667
Ga1216  Ga  0.650533  0.844032  0.740741
Ga1217  Ga  0.650533  0.844032  0.814815
Ga1218  Ga  0.650533  0.844032  0.888889
Ga1219  Ga  0.785126  0.044423  0.000000
Ga1220  Ga  0.785126  0.044423  0.962963
Ga1221  Ga  0.785126  0.044423  0.074074
Ga1222  Ga  0.785126  0.044423  0.148148
Ga1223  Ga  0.785126  0.044423  0.222222
Ga1224  Ga  0.785126  0.044423  0.296296
Ga1225  Ga  0.785126  0.044423  0.370370
Ga1226  Ga  0.785126  0.044423  0.444444
Ga1227  Ga  0.785126  0.044423  0.518519
Ga1228  Ga  0.785126  0.044423  0.592593
Ga1229  Ga  0.785126  0.044423  0.666667
Ga1230  Ga  0.785126  0.044423  0.740741
Ga1231  Ga  0.785126  0.044423  0.814815
Ga1232  Ga  0.785126  0.044423  0.888889
Ga1233  Ga  0.785126  0.133268  0.000000
Ga1234  Ga  0.785126  0.133268  0.962963
Ga1235  Ga  0.785126  0.133268  0.074074
Ga1236  Ga  0.785126  0.133268  0.148148
Ga1237  Ga  0.785126  0.133268  0.222222
Ga1238  Ga  0.785126  0.133268  0.296296
Ga1239  Ga  0.785126  0.133268  0.370370
Ga1240  Ga  0.785126  0.133268  0.444444
Ga1241  Ga  0.785126  0.133268  0.518519
Ga1242  Ga  0.785126  0.133268  0.592593
Ga1243  Ga  0.785126  0.133268  0.666667
Ga1244  Ga  0.785126  0.133268  0.740741
Ga1245  Ga  0.785126  0.133268  0.814815
Ga1246  Ga  0.785126  0.133268  0.888889
Ga1247  Ga  0.785126  0.222114  0.000000
Ga1248  Ga  0.785126  0.222114  0.962963
Ga1249  Ga  0.785126  0.222114  0.074074
Ga1250  Ga  0.785126  0.222114  0.148148
Ga1251  Ga  0.785126  0.222114  0.222222
Ga1252  Ga  0.785126  0.222114  0.296296
Ga1253  Ga  0.785126  0.222114  0.370370
Ga1254  Ga  0.785126  0.222114  0.444444
Ga1255  Ga  0.785126  0.222114  0.518519
Ga1256  Ga  0.785126  0.222114  0.592593
Ga1257  Ga  0.785126  0.222114  0.666667
Ga1258  Ga  0.785126  0.222114  0.740741
Ga1259  Ga  0.785126  0.222114  0.814815
Ga1260  Ga  0.785126  0.222114  0.888889
Ga1261  Ga  0.785126  0.310959  0.000000
Ga1262  Ga  0.785126  0.310959  0.962963
Ga1263  Ga  0.785126  0.310959  0.074074
Ga1264  Ga  0.785126  0.310959  0.148148
Ga1265  Ga  0.785126  0.310959  0.222222
Ga1266  Ga  0.785126  0.310959  0.296296
Ga1267  Ga  0.785126  0.310959  0.370370
Ga1268  Ga  0.785126  0.310959  0.444444
Ga1269  Ga  0.785126  0.310959  0.518519
Ga1270  Ga  0.785126  0.310959  0.592593
Ga1271  Ga  0.785126  0.310959  0.666667
Ga1272  Ga  0.785126  0.310959  0.740741
Ga1273  Ga  0.785126  0.310959  0.814815
Ga1274  Ga  0.785126  0.310959  0.888889
Ga1275  Ga  0.785126  0.399805  0.000000
Ga1276  Ga  0.785126  0.399805  0.962963
Ga1277  Ga  0.785126  0.399805  0.074074
Ga1278  Ga  0.785126  0.399805  0.148148
Ga1279  Ga  0.785126  0.399805  0.222222
Ga1280  Ga  0.785126  0.399805  0.296296
Ga1281  Ga  0.785126  0.399805  0.370370
Ga1282  Ga  0.785126  0.399805  0.444444
Ga1283  Ga  0.785126  0.399805  0.518519
Ga1284  Ga  0.785126  0.399805  0.592593
Ga1285  Ga  0.785126  0.399805  0.666667
Ga1286  Ga  0.785126  0.399805  0.740741
Ga1287  Ga  0.785126  0.399805  0.814815
Ga1288  Ga  0.785126  0.399805  0.888889
Ga1289  Ga  0.785126  0.488650  0.000000
Ga1290  Ga  0.785126  0.488650  0.962963
Ga1291  Ga  0.785126  0.488650  0.074074
Ga1292  Ga  0.785126  0.488650  0.148148
Ga1293  Ga  0.785126  0.488650  0.222222
Ga1294  Ga  0.785126  0.488650  0.296296
Ga1295  Ga  0.785126  0.488650  0.370370
Ga1296  Ga  0.785126  0.488650  0.444444
Ga1297  Ga  0.785126  0.488650  0.518519
Ga1298  Ga  0.785126  0.488650  0.592593
Ga1299  Ga  0.785126  0.488650  0.666667
Ga1300  Ga  0.785126  0.488650  0.740741
Ga1301  Ga  0.785126  0.488650  0.814815
Ga1302  Ga  0.785126  0.488650  0.888889
Ga1303  Ga  0.785126  0.577496  0.000000
Ga1304  Ga  0.785126  0.577496  0.962963
Ga1305  Ga  0.785126  0.577496  0.074074
Ga1306  Ga  0.785126  0.577496  0.148148
Ga1307  Ga  0.785126  0.577496  0.222222
Ga1308  Ga  0.785126  0.577496  0.296296
Ga1309  Ga  0.785126  0.577496  0.370370
Ga1310  Ga  0.785126  0.577496  0.444444
Ga1311  Ga  0.785126  0.577496  0.518519
Ga1312  Ga  0.785126  0.577496  0.592593
Ga1313  Ga  0.785126  0.577496  0.666667
Ga1314  Ga  0.785126  0.577496  0.740741
Ga1315  Ga  0.785126  0.577496  0.814815
Ga1316  Ga  0.785126  0.577496  0.888889
Ga1317  Ga  0.785126  0.666341  0.000000
Ga1318  Ga  0.785126  0.666341  0.962963
Ga1319  Ga  0.785126  0.666341  0.074074
Ga1320  Ga  0.785126  0.666341  0.148148
Ga1321  Ga  0.785126  0.666341  0.222222
Ga1322  Ga  0.785126  0.666341  0.296296
Ga1323  Ga  0.785126  0.666341  0.370370
Ga1324  Ga  0.785126  0.666341  0.444444
Ga1325  Ga  0.785126  0.666341  0.518519
Ga1326  Ga  0.785126  0.666341  0.592593
Ga1327  Ga  0.785126  0.666341  0.666667
Ga1328  Ga  0.785126  0.666341  0.740741
Ga1329  Ga  0.785126  0.666341  0.814815
Ga1330  Ga  0.785126  0.666341  0.888889
Ga1331  Ga  0.785126  0.755187  0.000000
Ga1332  Ga  0.785126  0.755187  0.962963
Ga1333  Ga  0.785126  0.755187  0.074074
Ga1334  Ga  0.785126  0.755187  0.148148
Ga1335  Ga  0.785126  0.755187  0.222222
Ga1336  Ga  0.785126  0.755187  0.296296
Ga1337  Ga  0.785126  0.755187  0.370370
Ga1338  Ga  0.785126  0.755187  0.444444
Ga1339  Ga  0.785126  0.755187  0.518519
Ga1340  Ga  0.785126  0.755187  0.592593
Ga1341  Ga  0.785126  0.755187  0.666667
Ga1342  Ga  0.785126  0.755187  0.740741
Ga1343  Ga  0.785126  0.755187  0.814815
Ga1344  Ga  0.785126  0.755187  0.888889
Ga1345  Ga  0.785126  0.844032  0.000000
Ga1346  Ga  0.785126  0.844032  0.962963
Ga1347  Ga  0.785126  0.844032  0.074074
Ga1348  Ga  0.785126  0.844032  0.148148
Ga1349  Ga  0.785126  0.844032  0.222222
Ga1350  Ga  0.785126  0.844032  0.296296
Ga1351  Ga  0.785126  0.844032  0.370370
Ga1352  Ga  0.785126  0.844032  0.444444
Ga1353  Ga  0.785126  0.844032  0.518519
Ga1354  Ga  0.785126  0.844032  0.592593
Ga1355  Ga  0.785126  0.844032  0.666667
Ga1356  Ga  0.785126  0.844032  0.740741
Ga1357  Ga  0.785126  0.844032  0.814815
Ga1358  Ga  0.785126  0.844032  0.888889
Ga1359  Ga  0.919719  0.044423  0.000000
Ga1360  Ga  0.919719  0.044423  0.962963
Ga1361  Ga  0.919719  0.044423  0.074074
Ga1362  Ga  0.919719  0.044423  0.148148
Ga1363  Ga  0.919719  0.044423  0.222222
Ga1364  Ga  0.919719  0.044423  0.296296
Ga1365  Ga  0.919719  0.044423  0.370370
Ga1366  Ga  0.919719  0.044423  0.444444
Ga1367  Ga  0.919719  0.044423  0.518519
Ga1368  Ga  0.919719  0.044423  0.592593
Ga1369  Ga  0.919719  0.044423  0.666667
Ga1370  Ga  0.919719  0.044423  0.740741
Ga1371  Ga  0.919719  0.044423  0.814815
Ga1372  Ga  0.919719  0.044423  0.888889
Ga1373  Ga  0.919719  0.133268  0.000000
Ga1374  Ga  0.919719  0.133268  0.962963
Ga1375  Ga  0.919719  0.133268  0.074074
Ga1376  Ga  0.919719  0.133268  0.148148
Ga1377  Ga  0.919719  0.133268  0.222222
Ga1378  Ga  0.919719  0.133268  0.296296
Ga1379  Ga  0.919719  0.133268  0.370370
Ga1380  Ga  0.919719  0.133268  0.444444
Ga1381  Ga  0.919719  0.133268  0.518519
Ga1382  Ga  0.919719  0.133268  0.592593
Ga1383  Ga  0.919719  0.133268  0.666667
Ga1384  Ga  0.919719  0.133268  0.740741
Ga1385  Ga  0.919719  0.133268  0.814815
Ga1386  Ga  0.919719  0.133268  0.888889
Ga1387  Ga  0.919719  0.222114  0.000000
Ga1388  Ga  0.919719  0.222114  0.962963
Ga1389  Ga  0.919719  0.222114  0.074074
Ga1390  Ga  0.919719  0.222114  0.148148
Ga1391  Ga  0.919719  0.222114  0.222222
Ga1392  Ga  0.919719  0.222114  0.296296
Ga1393  Ga  0.919719  0.222114  0.370370
Ga1394  Ga  0.919719  0.222114  0.444444
Ga1395  Ga  0.919719  0.222114  0.518519
Ga1396  Ga  0.919719  0.222114  0.592593
Ga1397  Ga  0.919719  0.222114  0.666667
Ga1398  Ga  0.919719  0.222114  0.740741
Ga1399  Ga  0.919719  0.222114  0.814815
Ga1400  Ga  0.919719  0.222114  0.888889
Ga1401  Ga  0.919719  0.310959  0.000000
Ga1402  Ga  0.919719  0.310959  0.962963
Ga1403  Ga  0.919719  0.310959  0.074074
Ga1404  Ga  0.919719  0.310959  0.148148
Ga1405  Ga  0.919719  0.310959  0.222222
Ga1406  Ga  0.919719  0.310959  0.296296
Ga1407  Ga  0.919719  0.310959  0.370370
Ga1408  Ga  0.919719  0.310959  0.444444
Ga1409  Ga  0.919719  0.310959  0.518519
Ga1410  Ga  0.919719  0.310959  0.592593
Ga1411  Ga  0.919719  0.310959  0.666667
Ga1412  Ga  0.919719  0.310959  0.740741
Ga1413  Ga  0.919719  0.310959  0.814815
Ga1414  Ga  0.919719  0.310959  0.888889
Ga1415  Ga  0.919719  0.399805  0.000000
Ga1416  Ga  0.919719  0.399805  0.962963
Ga1417  Ga  0.919719  0.399805  0.074074
Ga1418  Ga  0.919719  0.399805  0.148148
Ga1419  Ga  0.919719  0.399805  0.222222
Ga1420  Ga  0.919719  0.399805  0.296296
Ga1421  Ga  0.919719  0.399805  0.370370
Ga1422  Ga  0.919719  0.399805  0.444444
Ga1423  Ga  0.919719  0.399805  0.518519
Ga1424  Ga  0.919719  0.399805  0.592593
Ga1425  Ga  0.919719  0.399805  0.666667
Ga1426  Ga  0.919719  0.399805  0.740741
Ga1427  Ga  0.919719  0.399805  0.814815
Ga1428  Ga  0.919719  0.399805  0.888889
Ga1429  Ga  0.919719  0.488650  0.000000
Ga1430  Ga  0.919719  0.488650  0.962963
Ga1431  Ga  0.919719  0.488650  0.074074
Ga1432  Ga  0.919719  0.488650  0.148148
Ga1433  Ga  0.919719  0.488650  0.222222
Ga1434  Ga  0.919719  0.488650  0.296296
Ga1435  Ga  0.919719  0.488650  0.370370
Ga1436  Ga  0.919719  0.488650  0.444444
Ga1437  Ga  0.919719  0.488650  0.518519
Ga1438  Ga  0.919719  0.488650  0.592593
Ga1439  Ga  0.919719  0.488650  0.666667
Ga1440  Ga  0.919719  0.488650  0.740741
Ga1441  Ga  0.919719  0.488650  0.814815
Ga1442  Ga  0.919719  0.488650  0.888889
Ga1443  Ga  0.919719  0.577496  0.000000
Ga1444  Ga  0.919719  0.577496  0.962963
Ga1445  Ga  0.919719  0.577496  0.074074
Ga1446  Ga  0.919719  0.577496  0.148148
Ga1447  Ga  0.919719  0.577496  0.222222
Ga1448  Ga  0.919719  0.577496  0.296296
Ga1449  Ga  0.919719  0.577496  0.370370
Ga1450  Ga  0.919719  0.577496  0.444444
Ga1451  Ga  0.919719  0.577496  0.518519
Ga1452  Ga  0.919719  0.577496  0.592593
Ga1453  Ga  0.919719  0.577496  0.666667
Ga1454  Ga  0.919719  0.577496  0.740741
Ga1455  Ga  0.919719  0.577496  0.814815
Ga1456  Ga  0.919719  0.577496  0.888889
Ga1457  Ga  0.919719  0.666341  0.000000
Ga1458  Ga  0.919719  0.666341  0.962963
Ga1459  Ga  0.919719  0.666341  0.074074
Ga1460  Ga  0.919719  0.666341  0.148148
Ga1461  Ga  0.919719  0.666341  0.222222
Ga1462  Ga  0.919719  0.666341  0.296296
Ga1463  Ga  0.919719  0.666341  0.370370
Ga1464  Ga  0.919719  0.666341  0.444444
Ga1465  Ga  0.919719  0.666341  0.518519
Ga1466  Ga  0.919719  0.666341  0.592593
Ga1467  Ga  0.919719  0.666341  0.666667
Ga1468  Ga  0.919719  0.666341  0.740741
Ga1469  Ga  0.919719  0.666341  0.814815
Ga1470  Ga  0.919719  0.666341  0.888889
Ga1471  Ga  0.919719  0.755187  0.000000
Ga1472  Ga  0.919719  0.755187  0.962963
Ga1473  Ga  0.919719  0.755187  0.074074
Ga1474  Ga  0.919719  0.755187  0.148148
Ga1475  Ga  0.919719  0.755187  0.222222
Ga1476  Ga  0.919719  0.755187  0.296296
Ga1477  Ga  0.919719  0.755187  0.370370
Ga1478  Ga  0.919719  0.755187  0.444444
Ga1479  Ga  0.919719  0.755187  0.518519
Ga1480  Ga  0.919719  0.755187  0.592593
Ga1481  Ga  0.919719  0.755187  0.666667
Ga1482  Ga  0.919719  0.755187  0.740741
Ga1483  Ga  0.919719  0.755187  0.814815
Ga1484  Ga  0.919719  0.755187  0.888889
Ga1485  Ga  0.919719  0.844032  0.000000
Ga1486  Ga  0.919719  0.844032  0.962963
Ga1487  Ga  0.919719  0.844032  0.074074
Ga1488  Ga  0.919719  0.844032  0.148148
Ga1489  Ga  0.919719  0.844032  0.222222
Ga1490  Ga  0.919719  0.844032  0.296296
Ga1491  Ga  0.919719  0.844032  0.370370
Ga1492  Ga  0.919719  0.844032  0.444444
Ga1493  Ga  0.919719  0.844032  0.518519
Ga1494  Ga  0.919719  0.844032  0.592593
Ga1495  Ga  0.919719  0.844032  0.666667
Ga1496  Ga  0.919719  0.844032  0.740741
Ga1497  Ga  0.919719  0.844032  0.814815
Ga1498  Ga  0.919719  0.844032  0.888889
Ga1499  Ga  1.054312  0.310959  0.000000
Ga1500  Ga  1.054312  0.310959  0.962963
Ga1501  Ga  1.054312  0.310959  0.074074
Ga1502  Ga  1.054312  0.310959  0.148148
Ga1503  Ga  1.054312  0.310959  0.222222
Ga1504  Ga  1.054312  0.310959  0.296296
Ga1505  Ga  1.054312  0.310959  0.370370
Ga1506  Ga  1.054312  0.310959  0.444444
Ga1507  Ga  1.054312  0.310959  0.518519
Ga1508  Ga  1.054312  0.310959  0.592593
Ga1509  Ga  1.054312  0.310959  0.666667
Ga1510  Ga  1.054312  0.310959  0.740741
Ga1511  Ga  1.054312  0.310959  0.814815
Ga1512  Ga  1.054312  0.310959  0.888889
Ga1513  Ga  1.054312  0.399805  0.000000
Ga1514  Ga  1.054312  0.399805  0.962963
Ga1515  Ga  1.054312  0.399805  0.074074
Ga1516  Ga  1.054312  0.399805  0.148148
Ga1517  Ga  1.054312  0.399805  0.222222
Ga1518  Ga  1.054312  0.399805  0.296296
Ga1519  Ga  1.054312  0.399805  0.370370
Ga1520  Ga  1.054312  0.399805  0.444444
Ga1521  Ga  1.054312  0.399805  0.518519
Ga1522  Ga  1.054312  0.399805  0.592593
Ga1523  Ga  1.054312  0.399805  0.666667
Ga1524  Ga  1.054312  0.399805  0.740741
Ga1525  Ga  1.054312  0.399805  0.814815
Ga1526  Ga  1.054312  0.399805  0.888889
Ga1527  Ga  1.054312  0.488650  0.000000
Ga1528  Ga  1.054312  0.488650  0.962963
Ga1529  Ga  1.054312  0.488650  0.074074
Ga1530  Ga  1.054312  0.488650  0.148148
Ga1531  Ga  1.054312  0.488650  0.222222
Ga1532  Ga  1.054312  0.488650  0.296296
Ga1533  Ga  1.054312  0.488650  0.370370
Ga1534  Ga  1.054312  0.488650  0.444444
Ga1535  Ga  1.054312  0.488650  0.518519
Ga1536  Ga  1.054312  0.488650  0.592593
Ga1537  Ga  1.054312  0.488650  0.666667
Ga1538  Ga  1.054312  0.488650  0.740741
Ga1539  Ga  1.054312  0.488650  0.814815
Ga1540  Ga  1.054312  0.488650  0.888889
Ga1541  Ga  1.054312  0.577496  0.000000
Ga1542  Ga  1.054312  0.577496  0.962963
Ga1543  Ga  1.054312  0.577496  0.074074
Ga1544  Ga  1.054312  0.577496  0.148148
Ga1545  Ga  1.054312  0.577496  0.222222
Ga1546  Ga  1.054312  0.577496  0.296296
Ga1547  Ga  1.054312  0.577496  0.370370
Ga1548  Ga  1.054312  0.577496  0.444444
Ga1549  Ga  1.054312  0.577496  0.518519
Ga1550  Ga  1.054312  0.577496  0.592593
Ga1551  Ga  1.054312  0.577496  0.666667
Ga1552  Ga  1.054312  0.577496  0.740741
Ga1553  Ga  1.054312  0.577496  0.814815
Ga1554  Ga  1.054312  0.577496  0.888889
Ga1555  Ga  0.291618  0.310959  0.037037
Ga1556  Ga  0.291618  0.310959  0.111111
Ga1557  Ga  0.291618  0.310959  0.185185
Ga1558  Ga  0.291618  0.310959  0.259259
Ga1559  Ga  0.291618  0.310959  0.333333
Ga1560  Ga  0.291618  0.310959  0.407407
Ga1561  Ga  0.291618  0.310959  0.481481
Ga1562  Ga  0.291618  0.310959  0.555556
Ga1563  Ga  0.291618  0.310959  0.629630
Ga1564  Ga  0.291618  0.310959  0.703704
Ga1565  Ga  0.291618  0.310959  0.777778
Ga1566  Ga  0.291618  0.310959  0.851852
Ga1567  Ga  0.291618  0.310959  0.925926
Ga1568  Ga  0.291618  0.399805  0.037037
Ga1569  Ga  0.291618  0.399805  0.111111
Ga1570  Ga  0.291618  0.399805  0.185185
Ga1571  Ga  0.291618  0.399805  0.259259
Ga1572  Ga  0.291618  0.399805  0.333333
Ga1573  Ga  0.291618  0.399805  0.407407
Ga1574  Ga  0.291618  0.399805  0.481481
Ga1575  Ga  0.291618  0.399805  0.555556
Ga1576  Ga  0.291618  0.399805  0.629630
Ga1577  Ga  0.291618  0.399805  0.703704
Ga1578  Ga  0.291618  0.399805  0.777778
Ga1579  Ga  0.291618  0.399805  0.851852
Ga1580  Ga  0.291618  0.399805  0.925926
Ga1581  Ga  0.291618  0.488650  0.037037
Ga1582  Ga  0.291618  0.488650  0.111111
Ga1583  Ga  0.291618  0.488650  0.185185
Ga1584  Ga  0.291618  0.488650  0.259259
Ga1585  Ga  0.291618  0.488650  0.333333
Ga1586  Ga  0.291618  0.488650  0.407407
Ga1587  Ga  0.291618  0.488650  0.481481
Ga1588  Ga  0.291618  0.488650  0.555556
Ga1589  Ga  0.291618  0.488650  0.629630
Ga1590  Ga  0.291618  0.488650  0.703704
Ga1591  Ga  0.291618  0.488650  0.777778
Ga1592  Ga  0.291618  0.488650  0.851852
Ga1593  Ga  0.291618  0.488650  0.925926
Ga1594  Ga  0.291618  0.577496  0.037037
Ga1595  Ga  0.291618  0.577496  0.111111
Ga1596  Ga  0.291618  0.577496  0.185185
Ga1597  Ga  0.291618  0.577496  0.259259
Ga1598  Ga  0.291618  0.577496  0.333333
Ga1599  Ga  0.291618  0.577496  0.407407
Ga1600  Ga  0.291618  0.577496  0.481481
Ga1601  Ga  0.291618  0.577496  0.555556
Ga1602  Ga  0.291618  0.577496  0.629630
Ga1603  Ga  0.291618  0.577496  0.703704
Ga1604  Ga  0.291618  0.577496  0.777778
Ga1605  Ga  0.291618  0.577496  0.851852
Ga1606  Ga  0.291618  0.577496  0.925926
Ga1607  Ga  0.426211  0.044423  0.037037
Ga1608  Ga  0.426211  0.044423  0.111111
Ga1609  Ga  0.426211  0.044423  0.185185
Ga1610  Ga  0.426211  0.044423  0.259259
Ga1611  Ga  0.426211  0.044423  0.333333
Ga1612  Ga  0.426211  0.044423  0.407407
Ga1613  Ga  0.426211  0.044423  0.481481
Ga1614  Ga  0.426211  0.044423  0.555556
Ga1615  Ga  0.426211  0.044423  0.629630
Ga1616  Ga  0.426211  0.044423  0.703704
Ga1617  Ga  0.426211  0.044423  0.777778
Ga1618  Ga  0.426211  0.044423  0.851852
Ga1619  Ga  0.426211  0.044423  0.925926
Ga1620  Ga  0.426211  0.133268  0.037037
Ga1621  Ga  0.426211  0.133268  0.111111
Ga1622  Ga  0.426211  0.133268  0.185185
Ga1623  Ga  0.426211  0.133268  0.259259
Ga1624  Ga  0.426211  0.133268  0.333333
Ga1625  Ga  0.426211  0.133268  0.407407
Ga1626  Ga  0.426211  0.133268  0.481481
Ga1627  Ga  0.426211  0.133268  0.555556
Ga1628  Ga  0.426211  0.133268  0.629630
Ga1629  Ga  0.426211  0.133268  0.703704
Ga1630  Ga  0.426211  0.133268  0.777778
Ga1631  Ga  0.426211  0.133268  0.851852
Ga1632  Ga  0.426211  0.133268  0.925926
Ga1633  Ga  0.426211  0.222114  0.037037
Ga1634  Ga  0.426211  0.222114  0.111111
Ga1635  Ga  0.426211  0.222114  0.185185
Ga1636  Ga  0.426211  0.222114  0.259259
Ga1637  Ga  0.426211  0.222114  0.333333
Ga1638  Ga  0.426211  0.222114  0.407407
Ga1639  Ga  0.426211  0.222114  0.481481
Ga1640  Ga  0.426211  0.222114  0.555556
Ga1641  Ga  0.426211  0.222114  0.629630
Ga1642  Ga  0.426211  0.222114  0.703704
Ga1643  Ga  0.426211  0.222114  0.777778
Ga1644  Ga  0.426211  0.222114  0.851852
Ga1645  Ga  0.426211  0.222114  0.925926
Ga1646  Ga  0.426211  0.310959  0.037037
Ga1647  Ga  0.426211  0.310959  0.111111
Ga1648  Ga  0.426211  0.310959  0.185185
Ga1649  Ga  0.426211  0.310959  0.259259
Ga1650  Ga  0.426211  0.310959  0.333333
Ga1651  Ga  0.426211  0.310959  0.407407
Ga1652  Ga  0.426211  0.310959  0.481481
Ga1653  Ga  0.426211  0.310959  0.555556
Ga1654  Ga  0.426211  0.310959  0.629630
Ga1655  Ga  0.426211  0.310959  0.703704
Ga1656  Ga  0.426211  0.310959  0.777778
Ga1657  Ga  0.426211  0.310959  0.851852
Ga1658  Ga  0.426211  0.310959  0.925926
Ga1659  Ga  0.426211  0.399805  0.037037
Ga1660  Ga  0.426211  0.399805  0.111111
Ga1661  Ga  0.426211  0.399805  0.185185
Ga1662  Ga  0.426211  0.399805  0.259259
Ga1663  Ga  0.426211  0.399805  0.333333
Ga1664  Ga  0.426211  0.399805  0.407407
Ga1665  Ga  0.426211  0.399805  0.481481
Ga1666  Ga  0.426211  0.399805  0.555556
Ga1667  Ga  0.426211  0.399805  0.629630
Ga1668  Ga  0.426211  0.399805  0.703704
Ga1669  Ga  0.426211  0.399805  0.777778
Ga1670  Ga  0.426211  0.399805  0.851852
Ga1671  Ga  0.426211  0.399805  0.925926
Ga1672  Ga  0.426211  0.488650  0.037037
Ga1673  Ga  0.426211  0.488650  0.111111
Ga1674  Ga  0.426211  0.488650  0.185185
Ga1675  Ga  0.426211  0.488650  0.259259
Ga1676  Ga  0.426211  0.488650  0.333333
Ga1677  Ga  0.426211  0.488650  0.407407
Ga1678  Ga  0.426211  0.488650  0.481481
Ga1679  Ga  0.426211  0.488650  0.555556
Ga1680  Ga  0.426211  0.488650  0.629630
Ga1681  Ga  0.426211  0.488650  0.703704
Ga1682  Ga  0.426211  0.488650  0.777778
Ga1683  Ga  0.426211  0.488650  0.851852
Ga1684  Ga  0.426211  0.488650  0.925926
Ga1685  Ga  0.426211  0.577496  0.037037
Ga1686  Ga  0.426211  0.577496  0.111111
Ga1687  Ga  0.426211  0.577496  0.185185
Ga1688  Ga  0.426211  0.577496  0.259259
Ga1689  Ga  0.426211  0.577496  0.333333
Ga1690  Ga  0.426211  0.577496  0.407407
Ga1691  Ga  0.426211  0.577496  0.481481
Ga1692  Ga  0.426211  0.577496  0.555556
Ga1693  Ga  0.426211  0.577496  0.629630
Ga1694  Ga  0.426211  0.577496  0.703704
Ga1695  Ga  0.426211  0.577496  0.777778
Ga1696  Ga  0.426211  0.577496  0.851852
Ga1697  Ga  0.426211  0.577496  0.925926
Ga1698  Ga  0.426211  0.666341  0.037037
Ga1699  Ga  0.426211  0.666341  0.111111
Ga1700  Ga  0.426211  0.666341  0.185185
Ga1701  Ga  0.426211  0.666341  0.259259
Ga1702  Ga  0.426211  0.666341  0.333333
Ga1703  Ga  0.426211  0.666341  0.407407
Ga1704  Ga  0.426211  0.666341  0.481481
Ga1705  Ga  0.426211  0.666341  0.555556
Ga1706  Ga  0.426211  0.666341  0.629630
Ga1707  Ga  0.426211  0.666341  0.703704
Ga1708  Ga  0.426211  0.666341  0.777778
Ga1709  Ga  0.426211  0.666341  0.851852
Ga1710  Ga  0.426211  0.666341  0.925926
Ga1711  Ga  0.426211  0.755187  0.037037
Ga1712  Ga  0.426211  0.755187  0.111111
Ga1713  Ga  0.426211  0.755187  0.185185
Ga1714  Ga  0.426211  0.755187  0.259259
Ga1715  Ga  0.426211  0.755187  0.333333
Ga1716  Ga  0.426211  0.755187  0.407407
Ga1717  Ga  0.426211  0.755187  0.481481
Ga1718  Ga  0.426211  0.755187  0.555556
Ga1719  Ga  0.426211  0.755187  0.629630
Ga1720  Ga  0.426211  0.755187  0.703704
Ga1721  Ga  0.426211  0.755187  0.777778
Ga1722  Ga  0.426211  0.755187  0.851852
Ga1723  Ga  0.426211  0.755187  0.925926
Ga1724  Ga  0.426211  0.844032  0.037037
Ga1725  Ga  0.426211  0.844032  0.111111
Ga1726  Ga  0.426211  0.844032  0.185185
Ga1727  Ga  0.426211  0.844032  0.259259
Ga1728  Ga  0.426211  0.844032  0.333333
Ga1729  Ga  0.426211  0.844032  0.407407
Ga1730  Ga  0.426211  0.844032  0.481481
Ga1731  Ga  0.426211  0.844032  0.555556
Ga1732  Ga  0.426211  0.844032  0.629630
Ga1733  Ga  0.426211  0.844032  0.703704
Ga1734  Ga  0.426211  0.844032  0.777778
Ga1735  Ga  0.426211  0.844032  0.851852
Ga1736  Ga  0.426211  0.844032  0.925926
Ga1737  Ga  0.560804  0.044423  0.037037
Ga1738  Ga  0.560804  0.044423  0.111111
Ga1739  Ga  0.560804  0.044423  0.185185
Ga1740  Ga  0.560804  0.044423  0.259259
Ga1741  Ga  0.560804  0.044423  0.333333
Ga1742  Ga  0.560804  0.044423  0.407407
Ga1743  Ga  0.560804  0.044423  0.481481
Ga1744  Ga  0.560804  0.044423  0.555556
Ga1745  Ga  0.560804  0.044423  0.629630
Ga1746  Ga  0.560804  0.044423  0.703704
Ga1747  Ga  0.560804  0.044423  0.777778
Ga1748  Ga  0.560804  0.044423  0.851852
Ga1749  Ga  0.560804  0.044423  0.925926
Ga1750  Ga  0.560804  0.133268  0.037037
Ga1751  Ga  0.560804  0.133268  0.111111
Ga1752  Ga  0.560804  0.133268  0.185185
Ga1753  Ga  0.560804  0.133268  0.259259
Ga1754  Ga  0.560804  0.133268  0.333333
Ga1755  Ga  0.560804  0.133268  0.407407
Ga1756  Ga  0.560804  0.133268  0.481481
Ga1757  Ga  0.560804  0.133268  0.555556
Ga1758  Ga  0.560804  0.133268  0.629630
Ga1759  Ga  0.560804  0.133268  0.703704
Ga1760  Ga  0.560804  0.133268  0.777778
Ga1761  Ga  0.560804  0.133268  0.851852
Ga1762  Ga  0.560804  0.133268  0.925926
Ga1763  Ga  0.560804  0.222114  0.037037
Ga1764  Ga  0.560804  0.222114  0.111111
Ga1765  Ga  0.560804  0.222114  0.185185
Ga1766  Ga  0.560804  0.222114  0.259259
Ga1767  Ga  0.560804  0.222114  0.333333
Ga1768  Ga  0.560804  0.222114  0.407407
Ga1769  Ga  0.560804  0.222114  0.481481
Ga1770  Ga  0.560804  0.222114  0.555556
Ga1771  Ga  0.560804  0.222114  0.629630
Ga1772  Ga  0.560804  0.222114  0.703704
Ga1773  Ga  0.560804  0.222114  0.777778
Ga1774  Ga  0.560804  0.222114  0.851852
Ga1775  Ga  0.560804  0.222114  0.925926
Ga1776  Ga  0.560804  0.310959  0.037037
Ga1777  Ga  0.560804  0.310959  0.111111
Ga1778  Ga  0.560804  0.310959  0.185185
Ga1779  Ga  0.560804  0.310959  0.259259
Ga1780  Ga  0.560804  0.310959  0.333333
Ga1781  Ga  0.560804  0.310959  0.407407
Ga1782  Ga  0.560804  0.310959  0.481481
Ga1783  Ga  0.560804  0.310959  0.555556
Ga1784  Ga  0.560804  0.310959  0.629630
Ga1785  Ga  0.560804  0.310959  0.703704
Ga1786  Ga  0.560804  0.310959  0.777778
Ga1787  Ga  0.560804  0.310959  0.851852
Ga1788  Ga  0.560804  0.310959  0.925926
Ga1789  Ga  0.560804  0.399805  0.037037
Ga1790  Ga  0.560804  0.399805  0.111111
Ga1791  Ga  0.560804  0.399805  0.185185
Ga1792  Ga  0.560804  0.399805  0.259259
Ga1793  Ga  0.560804  0.399805  0.333333
Ga1794  Ga  0.560804  0.399805  0.407407
Ga1795  Ga  0.560804  0.399805  0.481481
Ga1796  Ga  0.560804  0.399805  0.555556
Ga1797  Ga  0.560804  0.399805  0.629630
Ga1798  Ga  0.560804  0.399805  0.703704
Ga1799  Ga  0.560804  0.399805  0.777778
Ga1800  Ga  0.560804  0.399805  0.851852
Ga1801  Ga  0.560804  0.399805  0.925926
Ga1802  Ga  0.560804  0.488650  0.037037
Ga1803  Ga  0.560804  0.488650  0.111111
Ga1804  Ga  0.560804  0.488650  0.185185
Ga1805  Ga  0.560804  0.488650  0.259259
Ga1806  Ga  0.560804  0.488650  0.333333
Ga1807  Ga  0.560804  0.488650  0.407407
Ga1808  Ga  0.560804  0.488650  0.481481
Ga1809  Ga  0.560804  0.488650  0.555556
Ga1810  Ga  0.560804  0.488650  0.629630
Ga1811  Ga  0.560804  0.488650  0.703704
Ga1812  Ga  0.560804  0.488650  0.777778
Ga1813  Ga  0.560804  0.488650  0.851852
Ga1814  Ga  0.560804  0.488650  0.925926
Ga1815  Ga  0.560804  0.577496  0.037037
Ga1816  Ga  0.560804  0.577496  0.111111
Ga1817  Ga  0.560804  0.577496  0.185185
Ga1818  Ga  0.560804  0.577496  0.259259
Ga1819  Ga  0.560804  0.577496  0.333333
Ga1820  Ga  0.560804  0.577496  0.407407
Ga1821  Ga  0.560804  0.577496  0.481481
Ga1822  Ga  0.560804  0.577496  0.555556
Ga1823  Ga  0.560804  0.577496  0.629630
Ga1824  Ga  0.560804  0.577496  0.703704
Ga1825  Ga  0.560804  0.577496  0.777778
Ga1826  Ga  0.560804  0.577496  0.851852
Ga1827  Ga  0.560804  0.577496  0.925926
Ga1828  Ga  0.560804  0.666341  0.037037
Ga1829  Ga  0.560804  0.666341  0.111111
Ga1830  Ga  0.560804  0.666341  0.185185
Ga1831  Ga  0.560804  0.666341  0.259259
Ga1832  Ga  0.560804  0.666341  0.333333
Ga1833  Ga  0.560804  0.666341  0.407407
Ga1834  Ga  0.560804  0.666341  0.481481
Ga1835  Ga  0.560804  0.666341  0.555556
Ga1836  Ga  0.560804  0.666341  0.629630
Ga1837  Ga  0.560804  0.666341  0.703704
Ga1838  Ga  0.560804  0.666341  0.777778
Ga1839  Ga  0.560804  0.666341  0.851852
Ga1840  Ga  0.560804  0.666341  0.925926
Ga1841  Ga  0.560804  0.755187  0.037037
Ga1842  Ga  0.560804  0.755187  0.111111
Ga1843  Ga  0.560804  0.755187  0.185185
Ga1844  Ga  0.560804  0.755187  0.259259
Ga1845  Ga  0.560804  0.755187  0.333333
Ga1846  Ga  0.560804  0.755187  0.407407
Ga1847  Ga  0.560804  0.755187  0.481481
Ga1848  Ga  0.560804  0.755187  0.555556
Ga1849  Ga  0.560804  0.755187  0.629630
Ga1850  Ga  0.560804  0.755187  0.703704
Ga1851  Ga  0.560804  0.755187  0.777778
Ga1852  Ga  0.560804  0.755187  0.851852
Ga1853  Ga  0.560804  0.755187  0.925926
Ga1854  Ga  0.560804  0.844032  0.037037
Ga1855  Ga  0.560804  0.844032  0.111111
Ga1856  Ga  0.560804  0.844032  0.185185
Ga1857  Ga  0.560804  0.844032  0.259259
Ga1858  Ga  0.560804  0.844032  0.333333
Ga1859  Ga  0.560804  0.844032  0.407407
Ga1860  Ga  0.560804  0.844032  0.481481
Ga1861  Ga  0.560804  0.844032  0.555556
Ga1862  Ga  0.560804  0.844032  0.629630
Ga1863  Ga  0.560804  0.844032  0.703704
Ga1864  Ga  0.560804  0.844032  0.777778
Ga1865  Ga  0.560804  0.844032  0.851852
Ga1866  Ga  0.560804  0.844032  0.925926
Ga1867  Ga  0.695397  0.044423  0.037037
Ga1868  Ga  0.695397  0.044423  0.111111
Ga1869  Ga  0.695397  0.044423  0.185185
Ga1870  Ga  0.695397  0.044423  0.259259
Ga1871  Ga  0.695397  0.044423  0.333333
Ga1872  Ga  0.695397  0.044423  0.407407
Ga1873  Ga  0.695397  0.044423  0.481481
Ga1874  Ga  0.695397  0.044423  0.555556
Ga1875  Ga  0.695397  0.044423  0.629630
Ga1876  Ga  0.695397  0.044423  0.703704
Ga1877  Ga  0.695397  0.044423  0.777778
Ga1878  Ga  0.695397  0.044423  0.851852
Ga1879  Ga  0.695397  0.044423  0.925926
Ga1880  Ga  0.695397  0.133268  0.037037
Ga1881  Ga  0.695397  0.133268  0.111111
Ga1882  Ga  0.695397  0.133268  0.185185
Ga1883  Ga  0.695397  0.133268  0.259259
Ga1884  Ga  0.695397  0.133268  0.333333
Ga1885  Ga  0.695397  0.133268  0.407407
Ga1886  Ga  0.695397  0.133268  0.481481
Ga1887  Ga  0.695397  0.133268  0.555556
Ga1888  Ga  0.695397  0.133268  0.629630
Ga1889  Ga  0.695397  0.133268  0.703704
Ga1890  Ga  0.695397  0.133268  0.777778
Ga1891  Ga  0.695397  0.133268  0.851852
Ga1892  Ga  0.695397  0.133268  0.925926
Ga1893  Ga  0.695397  0.222114  0.037037
Ga1894  Ga  0.695397  0.222114  0.111111
Ga1895  Ga  0.695397  0.222114  0.185185
Ga1896  Ga  0.695397  0.222114  0.259259
Ga1897  Ga  0.695397  0.222114  0.333333
Ga1898  Ga  0.695397  0.222114  0.407407
Ga1899  Ga  0.695397  0.222114  0.481481
Ga1900  Ga  0.695397  0.222114  0.555556
Ga1901  Ga  0.695397  0.222114  0.629630
Ga1902  Ga  0.695397  0.222114  0.703704
Ga1903  Ga  0.695397  0.222114  0.777778
Ga1904  Ga  0.695397  0.222114  0.851852
Ga1905  Ga  0.695397  0.222114  0.925926
Ga1906  Ga  0.695397  0.310959  0.037037
Ga1907  Ga  0.695397  0.310959  0.111111
Ga1908  Ga  0.695397  0.310959  0.185185
Ga1909  Ga  0.695397  0.310959  0.259259
Ga1910  Ga  0.695397  0.310959  0.333333
Ga1911  Ga  0.695397  0.310959  0.407407
Ga1912  Ga  0.695397  0.310959  0.481481
Ga1913  Ga  0.695397  0.310959  0.555556
Ga1914  Ga  0.695397  0.310959  0.629630
Ga1915  Ga  0.695397  0.310959  0.703704
Ga1916  Ga  0.695397  0.310959  0.777778
Ga1917  Ga  0.695397  0.310959  0.851852
Ga1918  Ga  0.695397  0.310959  0.925926
Ga1919  Ga  0.695397  0.399805  0.037037
Ga1920  Ga  0.695397  0.399805  0.111111
Ga1921  Ga  0.695397  0.399805  0.185185
Ga1922  Ga  0.695397  0.399805  0.259259
Ga1923  Ga  0.695397  0.399805  0.333333
Ga1924  Ga  0.695397  0.399805  0.407407
Ga1925  Ga  0.695397  0.399805  0.481481
Ga1926  Ga  0.695397  0.399805  0.555556
Ga1927  Ga  0.695397  0.399805  0.629630
Ga1928  Ga  0.695397  0.399805  0.703704
Ga1929  Ga  0.695397  0.399805  0.777778
Ga1930  Ga  0.695397  0.399805  0.851852
Ga1931  Ga  0.695397  0.399805  0.925926
Ga1932  Ga  0.695397  0.488650  0.037037
Ga1933  Ga  0.695397  0.488650  0.111111
Ga1934  Ga  0.695397  0.488650  0.185185
Ga1935  Ga  0.695397  0.488650  0.259259
Ga1936  Ga  0.695397  0.488650  0.333333
Ga1937  Ga  0.695397  0.488650  0.407407
Ga1938  Ga  0.695397  0.488650  0.481481
Ga1939  Ga  0.695397  0.488650  0.555556
Ga1940  Ga  0.695397  0.488650  0.629630
Ga1941  Ga  0.695397  0.488650  0.703704
Ga1942  Ga  0.695397  0.488650  0.777778
Ga1943  Ga  0.695397  0.488650  0.851852
Ga1944  Ga  0.695397  0.488650  0.925926
Ga1945  Ga  0.695397  0.577496  0.037037
Ga1946  Ga  0.695397  0.577496  0.111111
Ga1947  Ga  0.695397  0.577496  0.185185
Ga1948  Ga  0.695397  0.577496  0.259259
Ga1949  Ga  0.695397  0.577496  0.333333
Ga1950  Ga  0.695397  0.577496  0.407407
Ga1951  Ga  0.695397  0.577496  0.481481
Ga1952  Ga  0.695397  0.577496  0.555556
Ga1953  Ga  0.695397  0.577496  0.629630
Ga1954  Ga  0.695397  0.577496  0.703704
Ga1955  Ga  0.695397  0.577496  0.777778
Ga1956  Ga  0.695397  0.577496  0.851852
Ga1957  Ga  0.695397  0.577496  0.925926
Ga1958  Ga  0.695397  0.666341  0.037037
Ga1959  Ga  0.695397  0.666341  0.111111
Ga1960  Ga  0.695397  0.666341  0.185185
Ga1961  Ga  0.695397  0.666341  0.259259
Ga1962  Ga  0.695397  0.666341  0.333333
Ga1963  Ga  0.695397  0.666341  0.407407
Ga1964  Ga  0.695397  0.666341  0.481481
Ga1965  Ga  0.695397  0.666341  0.555556
Ga1966  Ga  0.695397  0.666341  0.629630
Ga1967  Ga  0.695397  0.666341  0.703704
Ga1968  Ga  0.695397  0.666341  0.777778
Ga1969  Ga  0.695397  0.666341  0.851852
Ga1970  Ga  0.695397  0.666341  0.925926
Ga1971  Ga  0.695397  0.755187  0.037037
Ga1972  Ga  0.695397  0.755187  0.111111
Ga1973  Ga  0.695397  0.755187  0.185185
Ga1974  Ga  0.695397  0.755187  0.259259
Ga1975  Ga  0.695397  0.755187  0.333333
Ga1976  Ga  0.695397  0.755187  0.407407
Ga1977  Ga  0.695397  0.755187  0.481481
Ga1978  Ga  0.695397  0.755187  0.555556
Ga1979  Ga  0.695397  0.755187  0.629630
Ga1980  Ga  0.695397  0.755187  0.703704
Ga1981  Ga  0.695397  0.755187  0.777778
Ga1982  Ga  0.695397  0.755187  0.851852
Ga1983  Ga  0.695397  0.755187  0.925926
Ga1984  Ga  0.695397  0.844032  0.037037
Ga1985  Ga  0.695397  0.844032  0.111111
Ga1986  Ga  0.695397  0.844032  0.185185
Ga1987  Ga  0.695397  0.844032  0.259259
Ga1988  Ga  0.695397  0.844032  0.333333
Ga1989  Ga  0.695397  0.844032  0.407407
Ga1990  Ga  0.695397  0.844032  0.481481
Ga1991  Ga  0.695397  0.844032  0.555556
Ga1992  Ga  0.695397  0.844032  0.629630
Ga1993  Ga  0.695397  0.844032  0.703704
Ga1994  Ga  0.695397  0.844032  0.777778
Ga1995  Ga  0.695397  0.844032  0.851852
Ga1996  Ga  0.695397  0.844032  0.925926
Ga1997  Ga  0.829990  0.044423  0.037037
Ga1998  Ga  0.829990  0.044423  0.111111
Ga1999  Ga  0.829990  0.044423  0.185185
Ga2000  Ga  0.829990  0.044423  0.259259
Ga2001  Ga  0.829990  0.044423  0.333333
Ga2002  Ga  0.829990  0.044423  0.407407
Ga2003  Ga  0.829990  0.044423  0.481481
Ga2004  Ga  0.829990  0.044423  0.555556
Ga2005  Ga  0.829990  0.044423  0.629630
Ga2006  Ga  0.829990  0.044423  0.703704
Ga2007  Ga  0.829990  0.044423  0.777778
Ga2008  Ga  0.829990  0.044423  0.851852
Ga2009  Ga  0.829990  0.044423  0.925926
Ga2010  Ga  0.829990  0.133268  0.037037
Ga2011  Ga  0.829990  0.133268  0.111111
Ga2012  Ga  0.829990  0.133268  0.185185
Ga2013  Ga  0.829990  0.133268  0.259259
Ga2014  Ga  0.829990  0.133268  0.333333
Ga2015  Ga  0.829990  0.133268  0.407407
Ga2016  Ga  0.829990  0.133268  0.481481
Ga2017  Ga  0.829990  0.133268  0.555556
Ga2018  Ga  0.829990  0.133268  0.629630
Ga2019  Ga  0.829990  0.133268  0.703704
Ga2020  Ga  0.829990  0.133268  0.777778
Ga2021  Ga  0.829990  0.133268  0.851852
Ga2022  Ga  0.829990  0.133268  0.925926
Ga2023  Ga  0.829990  0.222114  0.037037
Ga2024  Ga  0.829990  0.222114  0.111111
Ga2025  Ga  0.829990  0.222114  0.185185
Ga2026  Ga  0.829990  0.222114  0.259259
Ga2027  Ga  0.829990  0.222114  0.333333
Ga2028  Ga  0.829990  0.222114  0.407407
Ga2029  Ga  0.829990  0.222114  0.481481
Ga2030  Ga  0.829990  0.222114  0.555556
Ga2031  Ga  0.829990  0.222114  0.629630
Ga2032  Ga  0.829990  0.222114  0.703704
Ga2033  Ga  0.829990  0.222114  0.777778
Ga2034  Ga  0.829990  0.222114  0.851852
Ga2035  Ga  0.829990  0.222114  0.925926
Ga2036  Ga  0.829990  0.310959  0.037037
Ga2037  Ga  0.829990  0.310959  0.111111
Ga2038  Ga  0.829990  0.310959  0.185185
Ga2039  Ga  0.829990  0.310959  0.259259
Ga2040  Ga  0.829990  0.310959  0.333333
Ga2041  Ga  0.829990  0.310959  0.407407
Ga2042  Ga  0.829990  0.310959  0.481481
Ga2043  Ga  0.829990  0.310959  0.555556
Ga2044  Ga  0.829990  0.310959  0.629630
Ga2045  Ga  0.829990  0.310959  0.703704
Ga2046  Ga  0.829990  0.310959  0.777778
Ga2047  Ga  0.829990  0.310959  0.851852
Ga2048  Ga  0.829990  0.310959  0.925926
Ga2049  Ga  0.829990  0.399805  0.037037
Ga2050  Ga  0.829990  0.399805  0.111111
Ga2051  Ga  0.829990  0.399805  0.185185
Ga2052  Ga  0.829990  0.399805  0.259259
Ga2053  Ga  0.829990  0.399805  0.333333
Ga2054  Ga  0.829990  0.399805  0.407407
Ga2055  Ga  0.829990  0.399805  0.481481
Ga2056  Ga  0.829990  0.399805  0.555556
Ga2057  Ga  0.829990  0.399805  0.629630
Ga2058  Ga  0.829990  0.399805  0.703704
Ga2059  Ga  0.829990  0.399805  0.777778
Ga2060  Ga  0.829990  0.399805  0.851852
Ga2061  Ga  0.829990  0.399805  0.925926
Ga2062  Ga  0.829990  0.488650  0.037037
Ga2063  Ga  0.829990  0.488650  0.111111
Ga2064  Ga  0.829990  0.488650  0.185185
Ga2065  Ga  0.829990  0.488650  0.259259
Ga2066  Ga  0.829990  0.488650  0.333333
Ga2067  Ga  0.829990  0.488650  0.407407
Ga2068  Ga  0.829990  0.488650  0.481481
Ga2069  Ga  0.829990  0.488650  0.555556
Ga2070  Ga  0.829990  0.488650  0.629630
Ga2071  Ga  0.829990  0.488650  0.703704
Ga2072  Ga  0.829990  0.488650  0.777778
Ga2073  Ga  0.829990  0.488650  0.851852
Ga2074  Ga  0.829990  0.488650  0.925926
Ga2075  Ga  0.829990  0.577496  0.037037
Ga2076  Ga  0.829990  0.577496  0.111111
Ga2077  Ga  0.829990  0.577496  0.185185
Ga2078  Ga  0.829990  0.577496  0.259259
Ga2079  Ga  0.829990  0.577496  0.333333
Ga2080  Ga  0.829990  0.577496  0.407407
Ga2081  Ga  0.829990  0.577496  0.481481
Ga2082  Ga  0.829990  0.577496  0.555556
Ga2083  Ga  0.829990  0.577496  0.629630
Ga2084  Ga  0.829990  0.577496  0.703704
Ga2085  Ga  0.829990  0.577496  0.777778
Ga2086  Ga  0.829990  0.577496  0.851852
Ga2087  Ga  0.829990  0.577496  0.925926
Ga2088  Ga  0.829990  0.666341  0.037037
Ga2089  Ga  0.829990  0.666341  0.111111
Ga2090  Ga  0.829990  0.666341  0.185185
Ga2091  Ga  0.829990  0.666341  0.259259
Ga2092  Ga  0.829990  0.666341  0.333333
Ga2093  Ga  0.829990  0.666341  0.407407
Ga2094  Ga  0.829990  0.666341  0.481481
Ga2095  Ga  0.829990  0.666341  0.555556
Ga2096  Ga  0.829990  0.666341  0.629630
Ga2097  Ga  0.829990  0.666341  0.703704
Ga2098  Ga  0.829990  0.666341  0.777778
Ga2099  Ga  0.829990  0.666341  0.851852
Ga2100  Ga  0.829990  0.666341  0.925926
Ga2101  Ga  0.829990  0.755187  0.037037
Ga2102  Ga  0.829990  0.755187  0.111111
Ga2103  Ga  0.829990  0.755187  0.185185
Ga2104  Ga  0.829990  0.755187  0.259259
Ga2105  Ga  0.829990  0.755187  0.333333
Ga2106  Ga  0.829990  0.755187  0.407407
Ga2107  Ga  0.829990  0.755187  0.481481
Ga2108  Ga  0.829990  0.755187  0.555556
Ga2109  Ga  0.829990  0.755187  0.629630
Ga2110  Ga  0.829990  0.755187  0.703704
Ga2111  Ga  0.829990  0.755187  0.777778
Ga2112  Ga  0.829990  0.755187  0.851852
Ga2113  Ga  0.829990  0.755187  0.925926
Ga2114  Ga  0.829990  0.844032  0.037037
Ga2115  Ga  0.829990  0.844032  0.111111
Ga2116  Ga  0.829990  0.844032  0.185185
Ga2117  Ga  0.829990  0.844032  0.259259
Ga2118  Ga  0.829990  0.844032  0.333333
Ga2119  Ga  0.829990  0.844032  0.407407
Ga2120  Ga  0.829990  0.844032  0.481481
Ga2121  Ga  0.829990  0.844032  0.555556
Ga2122  Ga  0.829990  0.844032  0.629630
Ga2123  Ga  0.829990  0.844032  0.703704
Ga2124  Ga  0.829990  0.844032  0.777778
Ga2125  Ga  0.829990  0.844032  0.851852
Ga2126  Ga  0.829990  0.844032  0.925926
Ga2127  Ga  0.964583  0.133268  0.037037
Ga2128  Ga  0.964583  0.133268  0.111111
Ga2129  Ga  0.964583  0.133268  0.185185
Ga2130  Ga  0.964583  0.133268  0.259259
Ga2131  Ga  0.964583  0.133268  0.333333
Ga2132  Ga  0.964583  0.133268  0.407407
Ga2133  Ga  0.964583  0.133268  0.481481
Ga2134  Ga  0.964583  0.133268  0.555556
Ga2135  Ga  0.964583  0.133268  0.629630
Ga2136  Ga  0.964583  0.133268  0.703704
Ga2137  Ga  0.964583  0.133268  0.777778
Ga2138  Ga  0.964583  0.133268  0.851852
Ga2139  Ga  0.964583  0.133268  0.925926
Ga2140  Ga  0.964583  0.222114  0.037037
Ga2141  Ga  0.964583  0.222114  0.111111
Ga2142  Ga  0.964583  0.222114  0.185185
Ga2143  Ga  0.964583  0.222114  0.259259
Ga2144  Ga  0.964583  0.222114  0.333333
Ga2145  Ga  0.964583  0.222114  0.407407
Ga2146  Ga  0.964583  0.222114  0.481481
Ga2147  Ga  0.964583  0.222114  0.555556
Ga2148  Ga  0.964583  0.222114  0.629630
Ga2149  Ga  0.964583  0.222114  0.703704
Ga2150  Ga  0.964583  0.222114  0.777778
Ga2151  Ga  0.964583  0.222114  0.851852
Ga2152  Ga  0.964583  0.222114  0.925926
Ga2153  Ga  0.964583  0.310959  0.037037
Ga2154  Ga  0.964583  0.310959  0.111111
Ga2155  Ga  0.964583  0.310959  0.185185
Ga2156  Ga  0.964583  0.310959  0.259259
Ga2157  Ga  0.964583  0.310959  0.333333
Ga2158  Ga  0.964583  0.310959  0.407407
Ga2159  Ga  0.964583  0.310959  0.481481
Ga2160  Ga  0.964583  0.310959  0.555556
Ga2161  Ga  0.964583  0.310959  0.629630
Ga2162  Ga  0.964583  0.310959  0.703704
Ga2163  Ga  0.964583  0.310959  0.777778
Ga2164  Ga  0.964583  0.310959  0.851852
Ga2165  Ga  0.964583  0.310959  0.925926
Ga2166  Ga  0.964583  0.399805  0.037037
Ga2167  Ga  0.964583  0.399805  0.111111
Ga2168  Ga  0.964583  0.399805  0.185185
Ga2169  Ga  0.964583  0.399805  0.259259
Ga2170  Ga  0.964583  0.399805  0.333333
Ga2171  Ga  0.964583  0.399805  0.407407
Ga2172  Ga  0.964583  0.399805  0.481481
Ga2173  Ga  0.964583  0.399805  0.555556
Ga2174  Ga  0.964583  0.399805  0.629630
Ga2175  Ga  0.964583  0.399805  0.703704
Ga2176  Ga  0.964583  0.399805  0.777778
Ga2177  Ga  0.964583  0.399805  0.851852
Ga2178  Ga  0.964583  0.399805  0.925926
Ga2179  Ga  0.964583  0.488650  0.037037
Ga2180  Ga  0.964583  0.488650  0.111111
Ga2181  Ga  0.964583  0.488650  0.185185
Ga2182  Ga  0.964583  0.488650  0.259259
Ga2183  Ga  0.964583  0.488650  0.333333
Ga2184  Ga  0.964583  0.488650  0.407407
Ga2185  Ga  0.964583  0.488650  0.481481
Ga2186  Ga  0.964583  0.488650  0.555556
Ga2187  Ga  0.964583  0.488650  0.629630
Ga2188  Ga  0.964583  0.488650  0.703704
Ga2189  Ga  0.964583  0.488650  0.777778
Ga2190  Ga  0.964583  0.488650  0.851852
Ga2191  Ga  0.964583  0.488650  0.925926
Ga2192  Ga  0.964583  0.577496  0.037037
Ga2193  Ga  0.964583  0.577496  0.111111
Ga2194  Ga  0.964583  0.577496  0.185185
Ga2195  Ga  0.964583  0.577496  0.259259
Ga2196  Ga  0.964583  0.577496  0.333333
Ga2197  Ga  0.964583  0.577496  0.407407
Ga2198  Ga  0.964583  0.577496  0.481481
Ga2199  Ga  0.964583  0.577496  0.555556
Ga2200  Ga  0.964583  0.577496  0.629630
Ga2201  Ga  0.964583  0.577496  0.703704
Ga2202  Ga  0.964583  0.577496  0.777778
Ga2203  Ga  0.964583  0.577496  0.851852
Ga2204  Ga  0.964583  0.577496  0.925926
Ga2205  Ga  0.964583  0.666341  0.037037
Ga2206  Ga  0.964583  0.666341  0.111111
Ga2207  Ga  0.964583  0.666341  0.185185
Ga2208  Ga  0.964583  0.666341  0.259259
Ga2209  Ga  0.964583  0.666341  0.333333
Ga2210  Ga  0.964583  0.666341  0.407407
Ga2211  Ga  0.964583  0.666341  0.481481
Ga2212  Ga  0.964583  0.666341  0.555556
Ga2213  Ga  0.964583  0.666341  0.629630
Ga2214  Ga  0.964583  0.666341  0.703704
Ga2215  Ga  0.964583  0.666341  0.777778
Ga2216  Ga  0.964583  0.666341  0.851852
Ga2217  Ga  0.964583  0.666341  0.925926
Ga2218  Ga  0.964583  0.755187  0.037037
Ga2219  Ga  0.964583  0.755187  0.111111
Ga2220  Ga  0.964583  0.755187  0.185185
Ga2221  Ga  0.964583  0.755187  0.259259
Ga2222  Ga  0.964583  0.755187  0.333333
Ga2223  Ga  0.964583  0.755187  0.407407
Ga2224  Ga  0.964583  0.755187  0.481481
Ga2225  Ga  0.964583  0.755187  0.555556
Ga2226  Ga  0.964583  0.755187  0.629630
Ga2227  Ga  0.964583  0.755187  0.703704
Ga2228  Ga  0.964583  0.755187  0.777778
Ga2229  Ga  0.964583  0.755187  0.851852
Ga2230  Ga  0.964583  0.755187  0.925926
Ga2231  Ga  1.099176  0.399805  0.037037
Ga2232  Ga  1.099176  0.399805  0.111111
Ga2233  Ga  1.099176  0.399805  0.185185
Ga2234  Ga  1.099176  0.399805  0.259259
Ga2235  Ga  1.099176  0.399805  0.333333
Ga2236  Ga  1.099176  0.399805  0.407407
Ga2237  Ga  1.099176  0.399805  0.481481
Ga2238  Ga  1.099176  0.399805  0.555556
Ga2239  Ga  1.099176  0.399805  0.629630
Ga2240  Ga  1.099176  0.399805  0.703704
Ga2241  Ga  1.099176  0.399805  0.777778
Ga2242  Ga  1.099176  0.399805  0.851852
Ga2243  Ga  1.099176  0.399805  0.925926
Ga2244  Ga  1.099176  0.488650  0.037037
Ga2245  Ga  1.099176  0.488650  0.111111
Ga2246  Ga  1.099176  0.488650  0.185185
Ga2247  Ga  1.099176  0.488650  0.259259
Ga2248  Ga  1.099176  0.488650  0.333333
Ga2249  Ga  1.099176  0.488650  0.407407
Ga2250  Ga  1.099176  0.488650  0.481481
Ga2251  Ga  1.099176  0.488650  0.555556
Ga2252  Ga  1.099176  0.488650  0.629630
Ga2253  Ga  1.099176  0.488650  0.703704
Ga2254  Ga  1.099176  0.488650  0.777778
Ga2255  Ga  1.099176  0.488650  0.851852
Ga2256  Ga  1.099176  0.488650  0.925926
Ga2257  Ga  0.224322  0.444228  0.037037
Ga2258  Ga  0.224322  0.444228  0.111111
Ga2259  Ga  0.224322  0.444228  0.185185
Ga2260  Ga  0.224322  0.444228  0.259259
Ga2261  Ga  0.224322  0.444228  0.333333
Ga2262  Ga  0.224322  0.444228  0.407407
Ga2263  Ga  0.224322  0.444228  0.481481
Ga2264  Ga  0.224322  0.444228  0.555556
Ga2265  Ga  0.224322  0.444228  0.629630
Ga2266  Ga  0.224322  0.444228  0.703704
Ga2267  Ga  0.224322  0.444228  0.777778
Ga2268  Ga  0.224322  0.444228  0.851852
Ga2269  Ga  0.224322  0.444228  0.925926
Ga2270  Ga  0.358915  0.177691  0.037037
Ga2271  Ga  0.358915  0.177691  0.111111
Ga2272  Ga  0.358915  0.177691  0.185185
Ga2273  Ga  0.358915  0.177691  0.259259
Ga2274  Ga  0.358915  0.177691  0.333333
Ga2275  Ga  0.358915  0.177691  0.407407
Ga2276  Ga  0.358915  0.177691  0.481481
Ga2277  Ga  0.358915  0.177691  0.555556
Ga2278  Ga  0.358915  0.177691  0.629630
Ga2279  Ga  0.358915  0.177691  0.703704
Ga2280  Ga  0.358915  0.177691  0.777778
Ga2281  Ga  0.358915  0.177691  0.851852
Ga2282  Ga  0.358915  0.177691  0.925926
Ga2283  Ga  0.358915  0.266537  0.037037
Ga2284  Ga  0.358915  0.266537  0.111111
Ga2285  Ga  0.358915  0.266537  0.185185
Ga2286  Ga  0.358915  0.266537  0.259259
Ga2287  Ga  0.358915  0.266537  0.333333
Ga2288  Ga  0.358915  0.266537  0.407407
Ga2289  Ga  0.358915  0.266537  0.481481
Ga2290  Ga  0.358915  0.266537  0.555556
Ga2291  Ga  0.358915  0.266537  0.629630
Ga2292  Ga  0.358915  0.266537  0.703704
Ga2293  Ga  0.358915  0.266537  0.777778
Ga2294  Ga  0.358915  0.266537  0.851852
Ga2295  Ga  0.358915  0.266537  0.925926
Ga2296  Ga  0.358915  0.355382  0.037037
Ga2297  Ga  0.358915  0.355382  0.111111
Ga2298  Ga  0.358915  0.355382  0.185185
Ga2299  Ga  0.358915  0.355382  0.259259
Ga2300  Ga  0.358915  0.355382  0.333333
Ga2301  Ga  0.358915  0.355382  0.407407
Ga2302  Ga  0.358915  0.355382  0.481481
Ga2303  Ga  0.358915  0.355382  0.555556
Ga2304  Ga  0.358915  0.355382  0.629630
Ga2305  Ga  0.358915  0.355382  0.703704
Ga2306  Ga  0.358915  0.355382  0.777778
Ga2307  Ga  0.358915  0.355382  0.851852
Ga2308  Ga  0.358915  0.355382  0.925926
Ga2309  Ga  0.358915  0.444228  0.037037
Ga2310  Ga  0.358915  0.444228  0.111111
Ga2311  Ga  0.358915  0.444228  0.185185
Ga2312  Ga  0.358915  0.444228  0.259259
Ga2313  Ga  0.358915  0.444228  0.333333
Ga2314  Ga  0.358915  0.444228  0.407407
Ga2315  Ga  0.358915  0.444228  0.481481
Ga2316  Ga  0.358915  0.444228  0.555556
Ga2317  Ga  0.358915  0.444228  0.629630
Ga2318  Ga  0.358915  0.444228  0.703704
Ga2319  Ga  0.358915  0.444228  0.777778
Ga2320  Ga  0.358915  0.444228  0.851852
Ga2321  Ga  0.358915  0.444228  0.925926
Ga2322  Ga  0.358915  0.533073  0.037037
Ga2323  Ga  0.358915  0.533073  0.111111
Ga2324  Ga  0.358915  0.533073  0.185185
Ga2325  Ga  0.358915  0.533073  0.259259
Ga2326  Ga  0.358915  0.533073  0.333333
Ga2327  Ga  0.358915  0.533073  0.407407
Ga2328  Ga  0.358915  0.533073  0.481481
Ga2329  Ga  0.358915  0.533073  0.555556
Ga2330  Ga  0.358915  0.533073  0.629630
Ga2331  Ga  0.358915  0.533073  0.703704
Ga2332  Ga  0.358915  0.533073  0.777778
Ga2333  Ga  0.358915  0.533073  0.851852
Ga2334  Ga  0.358915  0.533073  0.925926
Ga2335  Ga  0.358915  0.621919  0.037037
Ga2336  Ga  0.358915  0.621919  0.111111
Ga2337  Ga  0.358915  0.621919  0.185185
Ga2338  Ga  0.358915  0.621919  0.259259
Ga2339  Ga  0.358915  0.621919  0.333333
Ga2340  Ga  0.358915  0.621919  0.407407
Ga2341  Ga  0.358915  0.621919  0.481481
Ga2342  Ga  0.358915  0.621919  0.555556
Ga2343  Ga  0.358915  0.621919  0.629630
Ga2344  Ga  0.358915  0.621919  0.703704
Ga2345  Ga  0.358915  0.621919  0.777778
Ga2346  Ga  0.358915  0.621919  0.851852
Ga2347  Ga  0.358915  0.621919  0.925926
Ga2348  Ga  0.358915  0.710764  0.037037
Ga2349  Ga  0.358915  0.710764  0.111111
Ga2350  Ga  0.358915  0.710764  0.185185
Ga2351  Ga  0.358915  0.710764  0.259259
Ga2352  Ga  0.358915  0.710764  0.333333
Ga2353  Ga  0.358915  0.710764  0.407407
Ga2354  Ga  0.358915  0.710764  0.481481
Ga2355  Ga  0.358915  0.710764  0.555556
Ga2356  Ga  0.358915  0.710764  0.629630
Ga2357  Ga  0.358915  0.710764  0.703704
Ga2358  Ga  0.358915  0.710764  0.777778
Ga2359  Ga  0.358915  0.710764  0.851852
Ga2360  Ga  0.358915  0.710764  0.925926
Ga2361  Ga  0.493508 -0.000000  0.037037
Ga2362  Ga  0.493508 -0.000000  0.111111
Ga2363  Ga  0.493508 -0.000000  0.185185
Ga2364  Ga  0.493508 -0.000000  0.259259
Ga2365  Ga  0.493508 -0.000000  0.333333
Ga2366  Ga  0.493508 -0.000000  0.407407
Ga2367  Ga  0.493508 -0.000000  0.481481
Ga2368  Ga  0.493508 -0.000000  0.555556
Ga2369  Ga  0.493508 -0.000000  0.629630
Ga2370  Ga  0.493508 -0.000000  0.703704
Ga2371  Ga  0.493508 -0.000000  0.777778
Ga2372  Ga  0.493508 -0.000000  0.851852
Ga2373  Ga  0.493508 -0.000000  0.925926
Ga2374  Ga  0.493508  0.088846  0.037037
Ga2375  Ga  0.493508  0.088846  0.111111
Ga2376  Ga  0.493508  0.088846  0.185185
Ga2377  Ga  0.493508  0.088846  0.259259
Ga2378  Ga  0.493508  0.088846  0.333333
Ga2379  Ga  0.493508  0.088846  0.407407
Ga2380  Ga  0.493508  0.088846  0.481481
Ga2381  Ga  0.493508  0.088846  0.555556
Ga2382  Ga  0.493508  0.088846  0.629630
Ga2383  Ga  0.493508  0.088846  0.703704
Ga2384  Ga  0.493508  0.088846  0.777778
Ga2385  Ga  0.493508  0.088846  0.851852
Ga2386  Ga  0.493508  0.088846  0.925926
Ga2387  Ga  0.493508  0.177691  0.037037
Ga2388  Ga  0.493508  0.177691  0.111111
Ga2389  Ga  0.493508  0.177691  0.185185
Ga2390  Ga  0.493508  0.177691  0.259259
Ga2391  Ga  0.493508  0.177691  0.333333
Ga2392  Ga  0.493508  0.177691  0.407407
Ga2393  Ga  0.493508  0.177691  0.481481
Ga2394  Ga  0.493508  0.177691  0.555556
Ga2395  Ga  0.493508  0.177691  0.629630
Ga2396  Ga  0.493508  0.177691  0.703704
Ga2397  Ga  0.493508  0.177691  0.777778
Ga2398  Ga  0.493508  0.177691  0.851852
Ga2399  Ga  0.493508  0.177691  0.925926
Ga2400  Ga  0.493508  0.266537  0.037037
Ga2401  Ga  0.493508  0.266537  0.111111
Ga2402  Ga  0.493508  0.266537  0.185185
Ga2403  Ga  0.493508  0.266537  0.259259
Ga2404  Ga  0.493508  0.266537  0.333333
Ga2405  Ga  0.493508  0.266537  0.407407
Ga2406  Ga  0.493508  0.266537  0.481481
Ga2407  Ga  0.493508  0.266537  0.555556
Ga2408  Ga  0.493508  0.266537  0.629630
Ga2409  Ga  0.493508  0.266537  0.703704
Ga2410  Ga  0.493508  0.266537  0.777778
Ga2411  Ga  0.493508  0.266537  0.851852
Ga2412  Ga  0.493508  0.266537  0.925926
Ga2413  Ga  0.493508  0.355382  0.037037
Ga2414  Ga  0.493508  0.355382  0.111111
Ga2415  Ga  0.493508  0.355382  0.185185
Ga2416  Ga  0.493508  0.355382  0.259259
Ga2417  Ga  0.493508  0.355382  0.333333
Ga2418  Ga  0.493508  0.355382  0.407407
Ga2419  Ga  0.493508  0.355382  0.481481
Ga2420  Ga  0.493508  0.355382  0.555556
Ga2421  Ga  0.493508  0.355382  0.629630
Ga2422  Ga  0.493508  0.355382  0.703704
Ga2423  Ga  0.493508  0.355382  0.777778
Ga2424  Ga  0.493508  0.355382  0.851852
Ga2425  Ga  0.493508  0.355382  0.925926
Ga2426  Ga  0.493508  0.444228  0.037037
Ga2427  Ga  0.493508  0.444228  0.111111
Ga2428  Ga  0.493508  0.444228  0.185185
Ga2429  Ga  0.493508  0.444228  0.259259
Ga2430  Ga  0.493508  0.444228  0.333333
Ga2431  Ga  0.493508  0.444228  0.407407
Ga2432  Ga  0.493508  0.444228  0.481481
Ga2433  Ga  0.493508  0.444228  0.555556
Ga2434  Ga  0.493508  0.444228  0.629630
Ga2435  Ga  0.493508  0.444228  0.703704
Ga2436  Ga  0.493508  0.444228  0.777778
Ga2437  Ga  0.493508  0.444228  0.851852
Ga2438  Ga  0.493508  0.444228  0.925926
Ga2439  Ga  0.493508  0.533073  0.037037
Ga2440  Ga  0.493508  0.533073  0.111111
Ga2441  Ga  0.493508  0.533073  0.185185
Ga2442  Ga  0.493508  0.533073  0.259259
Ga2443  Ga  0.493508  0.533073  0.333333
Ga2444  Ga  0.493508  0.533073  0.407407
Ga2445  Ga  0.493508  0.533073  0.481481
Ga2446  Ga  0.493508  0.533073  0.555556
Ga2447  Ga  0.493508  0.533073  0.629630
Ga2448  Ga  0.493508  0.533073  0.703704
Ga2449  Ga  0.493508  0.533073  0.777778
Ga2450  Ga  0.493508  0.533073  0.851852
Ga2451  Ga  0.493508  0.533073  0.925926
Ga2452  Ga  0.493508  0.621919  0.037037
Ga2453  Ga  0.493508  0.621919  0.111111
Ga2454  Ga  0.493508  0.621919  0.185185
Ga2455  Ga  0.493508  0.621919  0.259259
Ga2456  Ga  0.493508  0.621919  0.333333
Ga2457  Ga  0.493508  0.621919  0.407407
Ga2458  Ga  0.493508  0.621919  0.481481
Ga2459  Ga  0.493508  0.621919  0.555556
Ga2460  Ga  0.493508  0.621919  0.629630
Ga2461  Ga  0.493508  0.621919  0.703704
Ga2462  Ga  0.493508  0.621919  0.777778
Ga2463  Ga  0.493508  0.621919  0.851852
Ga2464  Ga  0.493508  0.621919  0.925926
Ga2465  Ga  0.493508  0.710764  0.037037
Ga2466  Ga  0.493508  0.710764  0.111111
Ga2467  Ga  0.493508  0.710764  0.185185
Ga2468  Ga  0.493508  0.710764  0.259259
Ga2469  Ga  0.493508  0.710764  0.333333
Ga2470  Ga  0.493508  0.710764  0.407407
Ga2471  Ga  0.493508  0.710764  0.481481
Ga2472  Ga  0.493508  0.710764  0.555556
Ga2473  Ga  0.493508  0.710764  0.629630
Ga2474  Ga  0.493508  0.710764  0.703704
Ga2475  Ga  0.493508  0.710764  0.777778
Ga2476  Ga  0.493508  0.710764  0.851852
Ga2477  Ga  0.493508  0.710764  0.925926
Ga2478  Ga  0.493508  0.799610  0.037037
Ga2479  Ga  0.493508  0.799610  0.111111
Ga2480  Ga  0.493508  0.799610  0.185185
Ga2481  Ga  0.493508  0.799610  0.259259
Ga2482  Ga  0.493508  0.799610  0.333333
Ga2483  Ga  0.493508  0.799610  0.407407
Ga2484  Ga  0.493508  0.799610  0.481481
Ga2485  Ga  0.493508  0.799610  0.555556
Ga2486  Ga  0.493508  0.799610  0.629630
Ga2487  Ga  0.493508  0.799610  0.703704
Ga2488  Ga  0.493508  0.799610  0.777778
Ga2489  Ga  0.493508  0.799610  0.851852
Ga2490  Ga  0.493508  0.799610  0.925926
Ga2491  Ga  0.493508  0.888455  0.037037
Ga2492  Ga  0.493508  0.888455  0.111111
Ga2493  Ga  0.493508  0.888455  0.185185
Ga2494  Ga  0.493508  0.888455  0.259259
Ga2495  Ga  0.493508  0.888455  0.333333
Ga2496  Ga  0.493508  0.888455  0.407407
Ga2497  Ga  0.493508  0.888455  0.481481
Ga2498  Ga  0.493508  0.888455  0.555556
Ga2499  Ga  0.493508  0.888455  0.629630
Ga2500  Ga  0.493508  0.888455  0.703704
Ga2501  Ga  0.493508  0.888455  0.777778
Ga2502  Ga  0.493508  0.888455  0.851852
Ga2503  Ga  0.493508  0.888455  0.925926
Ga2504  Ga  0.628101 -0.000000  0.037037
Ga2505  Ga  0.628101 -0.000000  0.111111
Ga2506  Ga  0.628101 -0.000000  0.185185
Ga2507  Ga  0.628101 -0.000000  0.259259
Ga2508  Ga  0.628101 -0.000000  0.333333
Ga2509  Ga  0.628101 -0.000000  0.407407
Ga2510  Ga  0.628101 -0.000000  0.481481
Ga2511  Ga  0.628101 -0.000000  0.555556
Ga2512  Ga  0.628101 -0.000000  0.629630
Ga2513  Ga  0.628101 -0.000000  0.703704
Ga2514  Ga  0.628101 -0.000000  0.777778
Ga2515  Ga  0.628101 -0.000000  0.851852
Ga2516  Ga  0.628101 -0.000000  0.925926
Ga2517  Ga  0.628101  0.088846  0.037037
Ga2518  Ga  0.628101  0.088846  0.111111
Ga2519  Ga  0.628101  0.088846  0.185185
Ga2520  Ga  0.628101  0.088846  0.259259
Ga2521  Ga  0.628101  0.088846  0.333333
Ga2522  Ga  0.628101  0.088846  0.407407
Ga2523  Ga  0.628101  0.088846  0.481481
Ga2524  Ga  0.628101  0.088846  0.555556
Ga2525  Ga  0.628101  0.088846  0.629630
Ga2526  Ga  0.628101  0.088846  0.703704
Ga2527  Ga  0.628101  0.088846  0.777778
Ga2528  Ga  0.628101  0.088846  0.851852
Ga2529  Ga  0.628101  0.088846  0.925926
Ga2530  Ga  0.628101  0.177691  0.037037
Ga2531  Ga  0.628101  0.177691  0.111111
Ga2532  Ga  0.628101  0.177691  0.185185
Ga2533  Ga  0.628101  0.177691  0.259259
Ga2534  Ga  0.628101  0.177691  0.333333
Ga2535  Ga  0.628101  0.177691  0.407407
Ga2536  Ga  0.628101  0.177691  0.481481
Ga2537  Ga  0.628101  0.177691  0.555556
Ga2538  Ga  0.628101  0.177691  0.629630
Ga2539  Ga  0.628101  0.177691  0.703704
Ga2540  Ga  0.628101  0.177691  0.777778
Ga2541  Ga  0.628101  0.177691  0.851852
Ga2542  Ga  0.628101  0.177691  0.925926
Ga2543  Ga  0.628101  0.266537  0.037037
Ga2544  Ga  0.628101  0.266537  0.111111
Ga2545  Ga  0.628101  0.266537  0.185185
Ga2546  Ga  0.628101  0.266537  0.259259
Ga2547  Ga  0.628101  0.266537  0.333333
Ga2548  Ga  0.628101  0.266537  0.407407
Ga2549  Ga  0.628101  0.266537  0.481481
Ga2550  Ga  0.628101  0.266537  0.555556
Ga2551  Ga  0.628101  0.266537  0.629630
Ga2552  Ga  0.628101  0.266537  0.703704
Ga2553  Ga  0.628101  0.266537  0.777778
Ga2554  Ga  0.628101  0.266537  0.851852
Ga2555  Ga  0.628101  0.266537  0.925926
Ga2556  Ga  0.628101  0.355382  0.037037
Ga2557  Ga  0.628101  0.355382  0.111111
Ga2558  Ga  0.628101  0.355382  0.185185
Ga2559  Ga  0.628101  0.355382  0.259259
Ga2560  Ga  0.628101  0.355382  0.333333
Ga2561  Ga  0.628101  0.355382  0.407407
Ga2562  Ga  0.628101  0.355382  0.481481
Ga2563  Ga  0.628101  0.355382  0.555556
Ga2564  Ga  0.628101  0.355382  0.629630
Ga2565  Ga  0.628101  0.355382  0.703704
Ga2566  Ga  0.628101  0.355382  0.777778
Ga2567  Ga  0.628101  0.355382  0.851852
Ga2568  Ga  0.628101  0.355382  0.925926
Ga2569  Ga  0.628101  0.444228  0.037037
Ga2570  Ga  0.628101  0.444228  0.111111
Ga2571  Ga  0.628101  0.444228  0.185185
Ga2572  Ga  0.628101  0.444228  0.259259
Ga2573  Ga  0.628101  0.444228  0.333333
Ga2574  Ga  0.628101  0.444228  0.407407
Ga2575  Ga  0.628101  0.444228  0.481481
Ga2576  Ga  0.628101  0.444228  0.555556
Ga2577  Ga  0.628101  0.444228  0.629630
Ga2578  Ga  0.628101  0.444228  0.703704
Ga2579  Ga  0.628101  0.444228  0.777778
Ga2580  Ga  0.628101  0.444228  0.851852
Ga2581  Ga  0.628101  0.444228  0.925926
Ga2582  Ga  0.628101  0.533073  0.037037
Ga2583  Ga  0.628101  0.533073  0.111111
Ga2584  Ga  0.628101  0.533073  0.185185
Ga2585  Ga  0.628101  0.533073  0.259259
Ga2586  Ga  0.628101  0.533073  0.333333
Ga2587  Ga  0.628101  0.533073  0.407407
Ga2588  Ga  0.628101  0.533073  0.481481
Ga2589  Ga  0.628101  0.533073  0.555556
Ga2590  Ga  0.628101  0.533073  0.629630
Ga2591  Ga  0.628101  0.533073  0.703704
Ga2592  Ga  0.628101  0.533073  0.777778
Ga2593  Ga  0.628101  0.533073  0.851852
Ga2594  Ga  0.628101  0.533073  0.925926
Ga2595  Ga  0.628101  0.621919  0.037037
Ga2596  Ga  0.628101  0.621919  0.111111
Ga2597  Ga  0.628101  0.621919  0.185185
Ga2598  Ga  0.628101  0.621919  0.259259
Ga2599  Ga  0.628101  0.621919  0.333333
Ga2600  Ga  0.628101  0.621919  0.407407
Ga2601  Ga  0.628101  0.621919  0.481481
Ga2602  Ga  0.628101  0.621919  0.555556
Ga2603  Ga  0.628101  0.621919  0.629630
Ga2604  Ga  0.628101  0.621919  0.703704
Ga2605  Ga  0.628101  0.621919  0.777778
Ga2606  Ga  0.628101  0.621919  0.851852
Ga2607  Ga  0.628101  0.621919  0.925926
Ga2608  Ga  0.628101  0.710764  0.037037
Ga2609  Ga  0.628101  0.710764  0.111111
Ga2610  Ga  0.628101  0.710764  0.185185
Ga2611  Ga  0.628101  0.710764  0.259259
Ga2612  Ga  0.628101  0.710764  0.333333
Ga2613  Ga  0.628101  0.710764  0.407407
Ga2614  Ga  0.628101  0.710764  0.481481
Ga2615  Ga  0.628101  0.710764  0.555556
Ga2616  Ga  0.628101  0.710764  0.629630
Ga2617  Ga  0.628101  0.710764  0.703704
Ga2618  Ga  0.628101  0.710764  0.777778
Ga2619  Ga  0.628101  0.710764  0.851852
Ga2620  Ga  0.628101  0.710764  0.925926
Ga2621  Ga  0.628101  0.799610  0.037037
Ga2622  Ga  0.628101  0.799610  0.111111
Ga2623  Ga  0.628101  0.799610  0.185185
Ga2624  Ga  0.628101  0.799610  0.259259
Ga2625  Ga  0.628101  0.799610  0.333333
Ga2626  Ga  0.628101  0.799610  0.407407
Ga2627  Ga  0.628101  0.799610  0.481481
Ga2628  Ga  0.628101  0.799610  0.555556
Ga2629  Ga  0.628101  0.799610  0.629630
Ga2630  Ga  0.628101  0.799610  0.703704
Ga2631  Ga  0.628101  0.799610  0.777778
Ga2632  Ga  0.628101  0.799610  0.851852
Ga2633  Ga  0.628101  0.799610  0.925926
Ga2634  Ga  0.628101  0.888455  0.037037
Ga2635  Ga  0.628101  0.888455  0.111111
Ga2636  Ga  0.628101  0.888455  0.185185
Ga2637  Ga  0.628101  0.888455  0.259259
Ga2638  Ga  0.628101  0.888455  0.333333
Ga2639  Ga  0.628101  0.888455  0.407407
Ga2640  Ga  0.628101  0.888455  0.481481
Ga2641  Ga  0.628101  0.888455  0.555556
Ga2642  Ga  0.628101  0.888455  0.629630
Ga2643  Ga  0.628101  0.888455  0.703704
Ga2644  Ga  0.628101  0.888455  0.777778
Ga2645  Ga  0.628101  0.888455  0.851852
Ga2646  Ga  0.628101  0.888455  0.925926
Ga2647  Ga  0.762694 -0.000000  0.037037
Ga2648  Ga  0.762694 -0.000000  0.111111
Ga2649  Ga  0.762694 -0.000000  0.185185
Ga2650  Ga  0.762694 -0.000000  0.259259
Ga2651  Ga  0.762694 -0.000000  0.333333
Ga2652  Ga  0.762694 -0.000000  0.407407
Ga2653  Ga  0.762694 -0.000000  0.481481
Ga2654  Ga  0.762694 -0.000000  0.555556
Ga2655  Ga  0.762694 -0.000000  0.629630
Ga2656  Ga  0.762694 -0.000000  0.703704
Ga2657  Ga  0.762694 -0.000000  0.777778
Ga2658  Ga  0.762694 -0.000000  0.851852
Ga2659  Ga  0.762694 -0.000000  0.925926
Ga2660  Ga  0.762694  0.088846  0.037037
Ga2661  Ga  0.762694  0.088846  0.111111
Ga2662  Ga  0.762694  0.088846  0.185185
Ga2663  Ga  0.762694  0.088846  0.259259
Ga2664  Ga  0.762694  0.088846  0.333333
Ga2665  Ga  0.762694  0.088846  0.407407
Ga2666  Ga  0.762694  0.088846  0.481481
Ga2667  Ga  0.762694  0.088846  0.555556
Ga2668  Ga  0.762694  0.088846  0.629630
Ga2669  Ga  0.762694  0.088846  0.703704
Ga2670  Ga  0.762694  0.088846  0.777778
Ga2671  Ga  0.762694  0.088846  0.851852
Ga2672  Ga  0.762694  0.088846  0.925926
Ga2673  Ga  0.762694  0.177691  0.037037
Ga2674  Ga  0.762694  0.177691  0.111111
Ga2675  Ga  0.762694  0.177691  0.185185
Ga2676  Ga  0.762694  0.177691  0.259259
Ga2677  Ga  0.762694  0.177691  0.333333
Ga2678  Ga  0.762694  0.177691  0.407407
Ga2679  Ga  0.762694  0.177691  0.481481
Ga2680  Ga  0.762694  0.177691  0.555556
Ga2681  Ga  0.762694  0.177691  0.629630
Ga2682  Ga  0.762694  0.177691  0.703704
Ga2683  Ga  0.762694  0.177691  0.777778
Ga2684  Ga  0.762694  0.177691  0.851852
Ga2685  Ga  0.762694  0.177691  0.925926
Ga2686  Ga  0.762694  0.266537  0.037037
Ga2687  Ga  0.762694  0.266537  0.111111
Ga2688  Ga  0.762694  0.266537  0.185185
Ga2689  Ga  0.762694  0.266537  0.259259
Ga2690  Ga  0.762694  0.266537  0.333333
Ga2691  Ga  0.762694  0.266537  0.407407
Ga2692  Ga  0.762694  0.266537  0.481481
Ga2693  Ga  0.762694  0.266537  0.555556
Ga2694  Ga  0.762694  0.266537  0.629630
Ga2695  Ga  0.762694  0.266537  0.703704
Ga2696  Ga  0.762694  0.266537  0.777778
Ga2697  Ga  0.762694  0.266537  0.851852
Ga2698  Ga  0.762694  0.266537  0.925926
Ga2699  Ga  0.762694  0.355382  0.037037
Ga2700  Ga  0.762694  0.355382  0.111111
Ga2701  Ga  0.762694  0.355382  0.185185
Ga2702  Ga  0.762694  0.355382  0.259259
Ga2703  Ga  0.762694  0.355382  0.333333
Ga2704  Ga  0.762694  0.355382  0.407407
Ga2705  Ga  0.762694  0.355382  0.481481
Ga2706  Ga  0.762694  0.355382  0.555556
Ga2707  Ga  0.762694  0.355382  0.629630
Ga2708  Ga  0.762694  0.355382  0.703704
Ga2709  Ga  0.762694  0.355382  0.777778
Ga2710  Ga  0.762694  0.355382  0.851852
Ga2711  Ga  0.762694  0.355382  0.925926
Ga2712  Ga  0.762694  0.444228  0.037037
Ga2713  Ga  0.762694  0.444228  0.111111
Ga2714  Ga  0.762694  0.444228  0.185185
Ga2715  Ga  0.762694  0.444228  0.259259
Ga2716  Ga  0.762694  0.444228  0.333333
Ga2717  Ga  0.762694  0.444228  0.407407
Ga2718  Ga  0.762694  0.444228  0.481481
Ga2719  Ga  0.762694  0.444228  0.555556
Ga2720  Ga  0.762694  0.444228  0.629630
Ga2721  Ga  0.762694  0.444228  0.703704
Ga2722  Ga  0.762694  0.444228  0.777778
Ga2723  Ga  0.762694  0.444228  0.851852
Ga2724  Ga  0.762694  0.444228  0.925926
Ga2725  Ga  0.762694  0.533073  0.037037
Ga2726  Ga  0.762694  0.533073  0.111111
Ga2727  Ga  0.762694  0.533073  0.185185
Ga2728  Ga  0.762694  0.533073  0.259259
Ga2729  Ga  0.762694  0.533073  0.333333
Ga2730  Ga  0.762694  0.533073  0.407407
Ga2731  Ga  0.762694  0.533073  0.481481
Ga2732  Ga  0.762694  0.533073  0.555556
Ga2733  Ga  0.762694  0.533073  0.629630
Ga2734  Ga  0.762694  0.533073  0.703704
Ga2735  Ga  0.762694  0.533073  0.777778
Ga2736  Ga  0.762694  0.533073  0.851852
Ga2737  Ga  0.762694  0.533073  0.925926
Ga2738  Ga  0.762694  0.621919  0.037037
Ga2739  Ga  0.762694  0.621919  0.111111
Ga2740  Ga  0.762694  0.621919  0.185185
Ga2741  Ga  0.762694  0.621919  0.259259
Ga2742  Ga  0.762694  0.621919  0.333333
Ga2743  Ga  0.762694  0.621919  0.407407
Ga2744  Ga  0.762694  0.621919  0.481481
Ga2745  Ga  0.762694  0.621919  0.555556
Ga2746  Ga  0.762694  0.621919  0.629630
Ga2747  Ga  0.762694  0.621919  0.703704
Ga2748  Ga  0.762694  0.621919  0.777778
Ga2749  Ga  0.762694  0.621919  0.851852
Ga2750  Ga  0.762694  0.621919  0.925926
Ga2751  Ga  0.762694  0.710764  0.037037
Ga2752  Ga  0.762694  0.710764  0.111111
Ga2753  Ga  0.762694  0.710764  0.185185
Ga2754  Ga  0.762694  0.710764  0.259259
Ga2755  Ga  0.762694  0.710764  0.333333
Ga2756  Ga  0.762694  0.710764  0.407407
Ga2757  Ga  0.762694  0.710764  0.481481
Ga2758  Ga  0.762694  0.710764  0.555556
Ga2759  Ga  0.762694  0.710764  0.629630
Ga2760  Ga  0.762694  0.710764  0.703704
Ga2761  Ga  0.762694  0.710764  0.777778
Ga2762  Ga  0.762694  0.710764  0.851852
Ga2763  Ga  0.762694  0.710764  0.925926
Ga2764  Ga  0.762694  0.799610  0.037037
Ga2765  Ga  0.762694  0.799610  0.111111
Ga2766  Ga  0.762694  0.799610  0.185185
Ga2767  Ga  0.762694  0.799610  0.259259
Ga2768  Ga  0.762694  0.799610  0.333333
Ga2769  Ga  0.762694  0.799610  0.407407
Ga2770  Ga  0.762694  0.799610  0.481481
Ga2771  Ga  0.762694  0.799610  0.555556
Ga2772  Ga  0.762694  0.799610  0.629630
Ga2773  Ga  0.762694  0.799610  0.703704
Ga2774  Ga  0.762694  0.799610  0.777778
Ga2775  Ga  0.762694  0.799610  0.851852
Ga2776  Ga  0.762694  0.799610  0.925926
Ga2777  Ga  0.762694  0.888455  0.037037
Ga2778  Ga  0.762694  0.888455  0.111111
Ga2779  Ga  0.762694  0.888455  0.185185
Ga2780  Ga  0.762694  0.888455  0.259259
Ga2781  Ga  0.762694  0.888455  0.333333
Ga2782  Ga  0.762694  0.888455  0.407407
Ga2783  Ga  0.762694  0.888455  0.481481
Ga2784  Ga  0.762694  0.888455  0.555556
Ga2785  Ga  0.762694  0.888455  0.629630
Ga2786  Ga  0.762694  0.888455  0.703704
Ga2787  Ga  0.762694  0.888455  0.777778
Ga2788  Ga  0.762694  0.888455  0.851852
Ga2789  Ga  0.762694  0.888455  0.925926
Ga2790  Ga  0.897287 -0.000000  0.037037
Ga2791  Ga  0.897287 -0.000000  0.111111
Ga2792  Ga  0.897287 -0.000000  0.185185
Ga2793  Ga  0.897287 -0.000000  0.259259
Ga2794  Ga  0.897287 -0.000000  0.333333
Ga2795  Ga  0.897287 -0.000000  0.407407
Ga2796  Ga  0.897287 -0.000000  0.481481
Ga2797  Ga  0.897287 -0.000000  0.555556
Ga2798  Ga  0.897287 -0.000000  0.629630
Ga2799  Ga  0.897287 -0.000000  0.703704
Ga2800  Ga  0.897287 -0.000000  0.777778
Ga2801  Ga  0.897287 -0.000000  0.851852
Ga2802  Ga  0.897287 -0.000000  0.925926
Ga2803  Ga  0.897287  0.088846  0.037037
Ga2804  Ga  0.897287  0.088846  0.111111
Ga2805  Ga  0.897287  0.088846  0.185185
Ga2806  Ga  0.897287  0.088846  0.259259
Ga2807  Ga  0.897287  0.088846  0.333333
Ga2808  Ga  0.897287  0.088846  0.407407
Ga2809  Ga  0.897287  0.088846  0.481481
Ga2810  Ga  0.897287  0.088846  0.555556
Ga2811  Ga  0.897287  0.088846  0.629630
Ga2812  Ga  0.897287  0.088846  0.703704
Ga2813  Ga  0.897287  0.088846  0.777778
Ga2814  Ga  0.897287  0.088846  0.851852
Ga2815  Ga  0.897287  0.088846  0.925926
Ga2816  Ga  0.897287  0.177691  0.037037
Ga2817  Ga  0.897287  0.177691  0.111111
Ga2818  Ga  0.897287  0.177691  0.185185
Ga2819  Ga  0.897287  0.177691  0.259259
Ga2820  Ga  0.897287  0.177691  0.333333
Ga2821  Ga  0.897287  0.177691  0.407407
Ga2822  Ga  0.897287  0.177691  0.481481
Ga2823  Ga  0.897287  0.177691  0.555556
Ga2824  Ga  0.897287  0.177691  0.629630
Ga2825  Ga  0.897287  0.177691  0.703704
Ga2826  Ga  0.897287  0.177691  0.777778
Ga2827  Ga  0.897287  0.177691  0.851852
Ga2828  Ga  0.897287  0.177691  0.925926
Ga2829  Ga  0.897287  0.266537  0.037037
Ga2830  Ga  0.897287  0.266537  0.111111
Ga2831  Ga  0.897287  0.266537  0.185185
Ga2832  Ga  0.897287  0.266537  0.259259
Ga2833  Ga  0.897287  0.266537  0.333333
Ga2834  Ga  0.897287  0.266537  0.407407
Ga2835  Ga  0.897287  0.266537  0.481481
Ga2836  Ga  0.897287  0.266537  0.555556
Ga2837  Ga  0.897287  0.266537  0.629630
Ga2838  Ga  0.897287  0.266537  0.703704
Ga2839  Ga  0.897287  0.266537  0.777778
Ga2840  Ga  0.897287  0.266537  0.851852
Ga2841  Ga  0.897287  0.266537  0.925926
Ga2842  Ga  0.897287  0.355382  0.037037
Ga2843  Ga  0.897287  0.355382  0.111111
Ga2844  Ga  0.897287  0.355382  0.185185
Ga2845  Ga  0.897287  0.355382  0.259259
Ga2846  Ga  0.897287  0.355382  0.333333
Ga2847  Ga  0.897287  0.355382  0.407407
Ga2848  Ga  0.897287  0.355382  0.481481
Ga2849  Ga  0.897287  0.355382  0.555556
Ga2850  Ga  0.897287  0.355382  0.629630
Ga2851  Ga  0.897287  0.355382  0.703704
Ga2852  Ga  0.897287  0.355382  0.777778
Ga2853  Ga  0.897287  0.355382  0.851852
Ga2854  Ga  0.897287  0.355382  0.925926
Ga2855  Ga  0.897287  0.444228  0.037037
Ga2856  Ga  0.897287  0.444228  0.111111
Ga2857  Ga  0.897287  0.444228  0.185185
Ga2858  Ga  0.897287  0.444228  0.259259
Ga2859  Ga  0.897287  0.444228  0.333333
Ga2860  Ga  0.897287  0.444228  0.407407
Ga2861  Ga  0.897287  0.444228  0.481481
Ga2862  Ga  0.897287  0.444228  0.555556
Ga2863  Ga  0.897287  0.444228  0.629630
Ga2864  Ga  0.897287  0.444228  0.703704
Ga2865  Ga  0.897287  0.444228  0.777778
Ga2866  Ga  0.897287  0.444228  0.851852
Ga2867  Ga  0.897287  0.444228  0.925926
Ga2868  Ga  0.897287  0.533073  0.037037
Ga2869  Ga  0.897287  0.533073  0.111111
Ga2870  Ga  0.897287  0.533073  0.185185
Ga2871  Ga  0.897287  0.533073  0.259259
Ga2872  Ga  0.897287  0.533073  0.333333
Ga2873  Ga  0.897287  0.533073  0.407407
Ga2874  Ga  0.897287  0.533073  0.481481
Ga2875  Ga  0.897287  0.533073  0.555556
Ga2876  Ga  0.897287  0.533073  0.629630
Ga2877  Ga  0.897287  0.533073  0.703704
Ga2878  Ga  0.897287  0.533073  0.777778
Ga2879  Ga  0.897287  0.533073  0.851852
Ga2880  Ga  0.897287  0.533073  0.925926
Ga2881  Ga  0.897287  0.621919  0.037037
Ga2882  Ga  0.897287  0.621919  0.111111
Ga2883  Ga  0.897287  0.621919  0.185185
Ga2884  Ga  0.897287  0.621919  0.259259
Ga2885  Ga  0.897287  0.621919  0.333333
Ga2886  Ga  0.897287  0.621919  0.407407
Ga2887  Ga  0.897287  0.621919  0.481481
Ga2888  Ga  0.897287  0.621919  0.555556
Ga2889  Ga  0.897287  0.621919  0.629630
Ga2890  Ga  0.897287  0.621919  0.703704
Ga2891  Ga  0.897287  0.621919  0.777778
Ga2892  Ga  0.897287  0.621919  0.851852
Ga2893  Ga  0.897287  0.621919  0.925926
Ga2894  Ga  0.897287  0.710764  0.037037
Ga2895  Ga  0.897287  0.710764  0.111111
Ga2896  Ga  0.897287  0.710764  0.185185
Ga2897  Ga  0.897287  0.710764  0.259259
Ga2898  Ga  0.897287  0.710764  0.333333
Ga2899  Ga  0.897287  0.710764  0.407407
Ga2900  Ga  0.897287  0.710764  0.481481
Ga2901  Ga  0.897287  0.710764  0.555556
Ga2902  Ga  0.897287  0.710764  0.629630
Ga2903  Ga  0.897287  0.710764  0.703704
Ga2904  Ga  0.897287  0.710764  0.777778
Ga2905  Ga  0.897287  0.710764  0.851852
Ga2906  Ga  0.897287  0.710764  0.925926
Ga2907  Ga  0.897287  0.799610  0.037037
Ga2908  Ga  0.897287  0.799610  0.111111
Ga2909  Ga  0.897287  0.799610  0.185185
Ga2910  Ga  0.897287  0.799610  0.259259
Ga2911  Ga  0.897287  0.799610  0.333333
Ga2912  Ga  0.897287  0.799610  0.407407
Ga2913  Ga  0.897287  0.799610  0.481481
Ga2914  Ga  0.897287  0.799610  0.555556
Ga2915  Ga  0.897287  0.799610  0.629630
Ga2916  Ga  0.897287  0.799610  0.703704
Ga2917  Ga  0.897287  0.799610  0.777778
Ga2918  Ga  0.897287  0.799610  0.851852
Ga2919  Ga  0.897287  0.799610  0.925926
Ga2920  Ga  0.897287  0.888455  0.037037
Ga2921  Ga  0.897287  0.888455  0.111111
Ga2922  Ga  0.897287  0.888455  0.185185
Ga2923  Ga  0.897287  0.888455  0.259259
Ga2924  Ga  0.897287  0.888455  0.333333
Ga2925  Ga  0.897287  0.888455  0.407407
Ga2926  Ga  0.897287  0.888455  0.481481
Ga2927  Ga  0.897287  0.888455  0.555556
Ga2928  Ga  0.897287  0.888455  0.629630
Ga2929  Ga  0.897287  0.888455  0.703704
Ga2930  Ga  0.897287  0.888455  0.777778
Ga2931  Ga  0.897287  0.888455  0.851852
Ga2932  Ga  0.897287  0.888455  0.925926
Ga2933  Ga  1.031880  0.266537  0.037037
Ga2934  Ga  1.031880  0.266537  0.111111
Ga2935  Ga  1.031880  0.266537  0.185185
Ga2936  Ga  1.031880  0.266537  0.259259
Ga2937  Ga  1.031880  0.266537  0.333333
Ga2938  Ga  1.031880  0.266537  0.407407
Ga2939  Ga  1.031880  0.266537  0.481481
Ga2940  Ga  1.031880  0.266537  0.555556
Ga2941  Ga  1.031880  0.266537  0.629630
Ga2942  Ga  1.031880  0.266537  0.703704
Ga2943  Ga  1.031880  0.266537  0.777778
Ga2944  Ga  1.031880  0.266537  0.851852
Ga2945  Ga  1.031880  0.266537  0.925926
Ga2946  Ga  1.031880  0.355382  0.037037
Ga2947  Ga  1.031880  0.355382  0.111111
Ga2948  Ga  1.031880  0.355382  0.185185
Ga2949  Ga  1.031880  0.355382  0.259259
Ga2950  Ga  1.031880  0.355382  0.333333
Ga2951  Ga  1.031880  0.355382  0.407407
Ga2952  Ga  1.031880  0.355382  0.481481
Ga2953  Ga  1.031880  0.355382  0.555556
Ga2954  Ga  1.031880  0.355382  0.629630
Ga2955  Ga  1.031880  0.355382  0.703704
Ga2956  Ga  1.031880  0.355382  0.777778
Ga2957  Ga  1.031880  0.355382  0.851852
Ga2958  Ga  1.031880  0.355382  0.925926
Ga2959  Ga  1.031880  0.444228  0.037037
Ga2960  Ga  1.031880  0.444228  0.111111
Ga2961  Ga  1.031880  0.444228  0.185185
Ga2962  Ga  1.031880  0.444228  0.259259
Ga2963  Ga  1.031880  0.444228  0.333333
Ga2964  Ga  1.031880  0.444228  0.407407
Ga2965  Ga  1.031880  0.444228  0.481481
Ga2966  Ga  1.031880  0.444228  0.555556
Ga2967  Ga  1.031880  0.444228  0.629630
Ga2968  Ga  1.031880  0.444228  0.703704
Ga2969  Ga  1.031880  0.444228  0.777778
Ga2970  Ga  1.031880  0.444228  0.851852
Ga2971  Ga  1.031880  0.444228  0.925926
Ga2972  Ga  1.031880  0.533073  0.037037
Ga2973  Ga  1.031880  0.533073  0.111111
Ga2974  Ga  1.031880  0.533073  0.185185
Ga2975  Ga  1.031880  0.533073  0.259259
Ga2976  Ga  1.031880  0.533073  0.333333
Ga2977  Ga  1.031880  0.533073  0.407407
Ga2978  Ga  1.031880  0.533073  0.481481
Ga2979  Ga  1.031880  0.533073  0.555556
Ga2980  Ga  1.031880  0.533073  0.629630
Ga2981  Ga  1.031880  0.533073  0.703704
Ga2982  Ga  1.031880  0.533073  0.777778
Ga2983  Ga  1.031880  0.533073  0.851852
Ga2984  Ga  1.031880  0.533073  0.925926
Ga2985  Ga  1.031880  0.621919  0.037037
Ga2986  Ga  1.031880  0.621919  0.111111
Ga2987  Ga  1.031880  0.621919  0.185185
Ga2988  Ga  1.031880  0.621919  0.259259
Ga2989  Ga  1.031880  0.621919  0.333333
Ga2990  Ga  1.031880  0.621919  0.407407
Ga2991  Ga  1.031880  0.621919  0.481481
Ga2992  Ga  1.031880  0.621919  0.555556
Ga2993  Ga  1.031880  0.621919  0.629630
Ga2994  Ga  1.031880  0.621919  0.703704
Ga2995  Ga  1.031880  0.621919  0.777778
Ga2996  Ga  1.031880  0.621919  0.851852
Ga2997  Ga  1.031880  0.621919  0.925926
N1  N  0.314050  0.266537  0.027778
N2  N  0.314050  0.266537  0.101852
N3  N  0.314050  0.266537  0.175926
N4  N  0.314050  0.266537  0.250000
N5  N  0.314050  0.266537  0.324074
N6  N  0.314050  0.266537  0.398148
N7  N  0.314050  0.266537  0.472222
N8  N  0.314050  0.266537  0.546296
N9  N  0.314050  0.266537  0.620370
N10  N  0.314050  0.266537  0.694444
N11  N  0.314050  0.266537  0.768519
N12  N  0.314050  0.266537  0.842593
N13  N  0.314050  0.266537  0.916667
N14  N  0.314050  0.355382  0.027778
N15  N  0.314050  0.355382  0.101852
N16  N  0.314050  0.355382  0.175926
N17  N  0.314050  0.355382  0.250000
N18  N  0.314050  0.355382  0.324074
N19  N  0.314050  0.355382  0.398148
N20  N  0.314050  0.355382  0.472222
N21  N  0.314050  0.355382  0.546296
N22  N  0.314050  0.355382  0.620370
N23  N  0.314050  0.355382  0.694444
N24  N  0.314050  0.355382  0.768519
N25  N  0.314050  0.355382  0.842593
N26  N  0.314050  0.355382  0.916667
N27  N  0.314050  0.444228  0.027778
N28  N  0.314050  0.444228  0.101852
N29  N  0.314050  0.444228  0.175926
N30  N  0.314050  0.444228  0.250000
N31  N  0.314050  0.444228  0.324074
N32  N  0.314050  0.444228  0.398148
N33  N  0.314050  0.444228  0.472222
N34  N  0.314050  0.444228  0.546296
N35  N  0.314050  0.444228  0.620370
N36  N  0.314050  0.444228  0.694444
N37  N  0.314050  0.444228  0.768519
N38  N  0.314050  0.444228  0.842593
N39  N  0.314050  0.444228  0.916667
N40  N  0.314050  0.533073  0.027778
N41  N  0.314050  0.533073  0.101852
N42  N  0.314050  0.533073  0.175926
N43  N  0.314050  0.533073  0.250000
N44  N  0.314050  0.533073  0.324074
N45  N  0.314050  0.533073  0.398148
N46  N  0.314050  0.533073  0.472222
N47  N  0.314050  0.533073  0.546296
N48  N  0.314050  0.533073  0.620370
N49  N  0.314050  0.533073  0.694444
N50  N  0.314050  0.533073  0.768519
N51  N  0.314050  0.533073  0.842593
N52  N  0.314050  0.533073  0.916667
N53  N  0.314050  0.621919  0.027778
N54  N  0.314050  0.621919  0.101852
N55  N  0.314050  0.621919  0.175926
N56  N  0.314050  0.621919  0.250000
N57  N  0.314050  0.621919  0.324074
N58  N  0.314050  0.621919  0.398148
N59  N  0.314050  0.621919  0.472222
N60  N  0.314050  0.621919  0.546296
N61  N  0.314050  0.621919  0.620370
N62  N  0.314050  0.621919  0.694444
N63  N  0.314050  0.621919  0.768519
N64  N  0.314050  0.621919  0.842593
N65  N  0.314050  0.621919  0.916667
N66  N  0.448643 -0.000000  0.027778
N67  N  0.448643 -0.000000  0.101852
N68  N  0.448643 -0.000000  0.175926
N69  N  0.448643 -0.000000  0.250000
N70  N  0.448643 -0.000000  0.324074
N71  N  0.448643 -0.000000  0.398148
N72  N  0.448643 -0.000000  0.472222
N73  N  0.448643 -0.000000  0.546296
N74  N  0.448643 -0.000000  0.620370
N75  N  0.448643 -0.000000  0.694444
N76  N  0.448643 -0.000000  0.768519
N77  N  0.448643 -0.000000  0.842593
N78  N  0.448643 -0.000000  0.916667
N79  N  0.448643  0.088846  0.027778
N80  N  0.448643  0.088846  0.101852
N81  N  0.448643  0.088846  0.175926
N82  N  0.448643  0.088846  0.250000
N83  N  0.448643  0.088846  0.324074
N84  N  0.448643  0.088846  0.398148
N85  N  0.448643  0.088846  0.472222
N86  N  0.448643  0.088846  0.546296
N87  N  0.448643  0.088846  0.620370
N88  N  0.448643  0.088846  0.694444
N89  N  0.448643  0.088846  0.768519
N90  N  0.448643  0.088846  0.842593
N91  N  0.448643  0.088846  0.916667
N92  N  0.448643  0.177691  0.027778
N93  N  0.448643  0.177691  0.101852
N94  N  0.448643  0.177691  0.175926
N95  N  0.448643  0.177691  0.250000
N96  N  0.448643  0.177691  0.324074
N97  N  0.448643  0.177691  0.398148
N98  N  0.448643  0.177691  0.472222
N99  N  0.448643  0.177691  0.546296
N100  N  0.448643  0.177691  0.620370
N101  N  0.448643  0.177691  0.694444
N102  N  0.448643  0.177691  0.768519
N103  N  0.448643  0.177691  0.842593
N104  N  0.448643  0.177691  0.916667
N105  N  0.448643  0.266537  0.027778
N106  N  0.448643  0.266537  0.101852
N107  N  0.448643  0.266537  0.175926
N108  N  0.448643  0.266537  0.250000
N109  N  0.448643  0.266537  0.324074
N110  N  0.448643  0.266537  0.398148
N111  N  0.448643  0.266537  0.472222
N112  N  0.448643  0.266537  0.546296
N113  N  0.448643  0.266537  0.620370
N114  N  0.448643  0.266537  0.694444
N115  N  0.448643  0.266537  0.768519
N116  N  0.448643  0.266537  0.842593
N117  N  0.448643  0.266537  0.916667
N118  N  0.448643  0.355382  0.027778
N119  N  0.448643  0.355382  0.101852
N120  N  0.448643  0.355382  0.175926
N121  N  0.448643  0.355382  0.250000
N122  N  0.448643  0.355382  0.324074
N123  N  0.448643  0.355382  0.398148
N124  N  0.448643  0.355382  0.472222
N125  N  0.448643  0.355382  0.546296
N126  N  0.448643  0.355382  0.620370
N127  N  0.448643  0.355382  0.694444
N128  N  0.448643  0.355382  0.768519
N129  N  0.448643  0.355382  0.842593
N130  N  0.448643  0.355382  0.916667
N131  N  0.448643  0.444228  0.027778
N132  N  0.448643  0.444228  0.101852
N133  N  0.448643  0.444228  0.175926
N134  N  0.448643  0.444228  0.250000
N135  N  0.448643  0.444228  0.324074
N136  N  0.448643  0.444228  0.398148
N137  N  0.448643  0.444228  0.472222
N138  N  0.448643  0.444228  0.546296
N139  N  0.448643  0.444228  0.620370
N140  N  0.448643  0.444228  0.694444
N141  N  0.448643  0.444228  0.768519
N142  N  0.448643  0.444228  0.842593
N143  N  0.448643  0.444228  0.916667
N144  N  0.448643  0.533073  0.027778
N145  N  0.448643  0.533073  0.101852
N146  N  0.448643  0.533073  0.175926
N147  N  0.448643  0.533073  0.250000
N148  N  0.448643  0.533073  0.324074
N149  N  0.448643  0.533073  0.398148
N150  N  0.448643  0.533073  0.472222
N151  N  0.448643  0.533073  0.546296
N152  N  0.448643  0.533073  0.620370
N153  N  0.448643  0.533073  0.694444
N154  N  0.448643  0.533073  0.768519
N155  N  0.448643  0.533073  0.842593
N156  N  0.448643  0.533073  0.916667
N157  N  0.448643  0.621919  0.027778
N158  N  0.448643  0.621919  0.101852
N159  N  0.448643  0.621919  0.175926
N160  N  0.448643  0.621919  0.250000
N161  N  0.448643  0.621919  0.324074
N162  N  0.448643  0.621919  0.398148
N163  N  0.448643  0.621919  0.472222
N164  N  0.448643  0.621919  0.546296
N165  N  0.448643  0.621919  0.620370
N166  N  0.448643  0.621919  0.694444
N167  N  0.448643  0.621919  0.768519
N168  N  0.448643  0.621919  0.842593
N169  N  0.448643  0.621919  0.916667
N170  N  0.448643  0.710764  0.027778
N171  N  0.448643  0.710764  0.101852
N172  N  0.448643  0.710764  0.175926
N173  N  0.448643  0.710764  0.250000
N174  N  0.448643  0.710764  0.324074
N175  N  0.448643  0.710764  0.398148
N176  N  0.448643  0.710764  0.472222
N177  N  0.448643  0.710764  0.546296
N178  N  0.448643  0.710764  0.620370
N179  N  0.448643  0.710764  0.694444
N180  N  0.448643  0.710764  0.768519
N181  N  0.448643  0.710764  0.842593
N182  N  0.448643  0.710764  0.916667
N183  N  0.448643  0.799610  0.027778
N184  N  0.448643  0.799610  0.101852
N185  N  0.448643  0.799610  0.175926
N186  N  0.448643  0.799610  0.250000
N187  N  0.448643  0.799610  0.324074
N188  N  0.448643  0.799610  0.398148
N189  N  0.448643  0.799610  0.472222
N190  N  0.448643  0.799610  0.546296
N191  N  0.448643  0.799610  0.620370
N192  N  0.448643  0.799610  0.694444
N193  N  0.448643  0.799610  0.768519
N194  N  0.448643  0.799610  0.842593
N195  N  0.448643  0.799610  0.916667
N196  N  0.448643  0.888455  0.027778
N197  N  0.448643  0.888455  0.101852
N198  N  0.448643  0.888455  0.175926
N199  N  0.448643  0.888455  0.250000
N200  N  0.448643  0.888455  0.324074
N201  N  0.448643  0.888455  0.398148
N202  N  0.448643  0.888455  0.472222
N203  N  0.448643  0.888455  0.546296
N204  N  0.448643  0.888455  0.620370
N205  N  0.448643  0.888455  0.694444
N206  N  0.448643  0.888455  0.768519
N207  N  0.448643  0.888455  0.842593
N208  N  0.448643  0.888455  0.916667
N209  N  0.583236 -0.000000  0.027778
N210  N  0.583236 -0.000000  0.101852
N211  N  0.583236 -0.000000  0.175926
N212  N  0.583236 -0.000000  0.250000
N213  N  0.583236 -0.000000  0.324074
N214  N  0.583236 -0.000000  0.398148
N215  N  0.583236 -0.000000  0.472222
N216  N  0.583236 -0.000000  0.546296
N217  N  0.583236 -0.000000  0.620370
N218  N  0.583236 -0.000000  0.694444
N219  N  0.583236 -0.000000  0.768519
N220  N  0.583236 -0.000000  0.842593
N221  N  0.583236 -0.000000  0.916667
N222  N  0.583236  0.088846  0.027778
N223  N  0.583236  0.088846  0.101852
N224  N  0.583236  0.088846  0.175926
N225  N  0.583236  0.088846  0.250000
N226  N  0.583236  0.088846  0.324074
N227  N  0.583236  0.088846  0.398148
N228  N  0.583236  0.088846  0.472222
N229  N  0.583236  0.088846  0.546296
N230  N  0.583236  0.088846  0.620370
N231  N  0.583236  0.088846  0.694444
N232  N  0.583236  0.088846  0.768519
N233  N  0.583236  0.088846  0.842593
N234  N  0.583236  0.088846  0.916667
N235  N  0.583236  0.177691  0.027778
N236  N  0.583236  0.177691  0.101852
N237  N  0.583236  0.177691  0.175926
N238  N  0.583236  0.177691  0.250000
N239  N  0.583236  0.177691  0.324074
N240  N  0.583236  0.177691  0.398148
N241  N  0.583236  0.177691  0.472222
N242  N  0.583236  0.177691  0.546296
N243  N  0.583236  0.177691  0.620370
N244  N  0.583236  0.177691  0.694444
N245  N  0.583236  0.177691  0.768519
N246  N  0.583236  0.177691  0.842593
N247  N  0.583236  0.177691  0.916667
N248  N  0.583236  0.266537  0.027778
N249  N  0.583236  0.266537  0.101852
N250  N  0.583236  0.266537  0.175926
N251  N  0.583236  0.266537  0.250000
N252  N  0.583236  0.266537  0.324074
N253  N  0.583236  0.266537  0.398148
N254  N  0.583236  0.266537  0.472222
N255  N  0.583236  0.266537  0.546296
N256  N  0.583236  0.266537  0.620370
N257  N  0.583236  0.266537  0.694444
N258  N  0.583236  0.266537  0.768519
N259  N  0.583236  0.266537  0.842593
N260  N  0.583236  0.266537  0.916667
N261  N  0.583236  0.355382  0.027778
N262  N  0.583236  0.355382  0.101852
N263  N  0.583236  0.355382  0.175926
N264  N  0.583236  0.355382  0.250000
N265  N  0.583236  0.355382  0.324074
N266  N  0.583236  0.355382  0.398148
N267  N  0.583236  0.355382  0.472222
N268  N  0.583236  0.355382  0.546296
N269  N  0.583236  0.355382  0.620370
N270  N  0.583236  0.355382  0.694444
N271  N  0.583236  0.355382  0.768519
N272  N  0.583236  0.355382  0.842593
N273  N  0.583236  0.355382  0.916667
N274  N  0.583236  0.444228  0.027778
N275  N  0.583236  0.444228  0.101852
N276  N  0.583236  0.444228  0.175926
N277  N  0.583236  0.444228  0.250000
N278  N  0.583236  0.444228  0.324074
N279  N  0.583236  0.444228  0.398148
N280  N  0.583236  0.444228  0.472222
N281  N  0.583236  0.444228  0.546296
N282  N  0.583236  0.444228  0.620370
N283  N  0.583236  0.444228  0.694444
N284  N  0.583236  0.444228  0.768519
N285  N  0.583236  0.444228  0.842593
N286  N  0.583236  0.444228  0.916667
N287  N  0.583236  0.533073  0.027778
N288  N  0.583236  0.533073  0.101852
N289  N  0.583236  0.533073  0.175926
N290  N  0.583236  0.533073  0.250000
N291  N  0.583236  0.533073  0.324074
N292  N  0.583236  0.533073  0.398148
N293  N  0.583236  0.533073  0.472222
N294  N  0.583236  0.533073  0.546296
N295  N  0.583236  0.533073  0.620370
N296  N  0.583236  0.533073  0.694444
N297  N  0.583236  0.533073  0.768519
N298  N  0.583236  0.533073  0.842593
N299  N  0.583236  0.533073  0.916667
N300  N  0.583236  0.621919  0.027778
N301  N  0.583236  0.621919  0.101852
N302  N  0.583236  0.621919  0.175926
N303  N  0.583236  0.621919  0.250000
N304  N  0.583236  0.621919  0.324074
N305  N  0.583236  0.621919  0.398148
N306  N  0.583236  0.621919  0.472222
N307  N  0.583236  0.621919  0.546296
N308  N  0.583236  0.621919  0.620370
N309  N  0.583236  0.621919  0.694444
N310  N  0.583236  0.621919  0.768519
N311  N  0.583236  0.621919  0.842593
N312  N  0.583236  0.621919  0.916667
N313  N  0.583236  0.710764  0.027778
N314  N  0.583236  0.710764  0.101852
N315  N  0.583236  0.710764  0.175926
N316  N  0.583236  0.710764  0.250000
N317  N  0.583236  0.710764  0.324074
N318  N  0.583236  0.710764  0.398148
N319  N  0.583236  0.710764  0.472222
N320  N  0.583236  0.710764  0.546296
N321  N  0.583236  0.710764  0.620370
N322  N  0.583236  0.710764  0.694444
N323  N  0.583236  0.710764  0.768519
N324  N  0.583236  0.710764  0.842593
N325  N  0.583236  0.710764  0.916667
N326  N  0.583236  0.799610  0.027778
N327  N  0.583236  0.799610  0.101852
N328  N  0.583236  0.799610  0.175926
N329  N  0.583236  0.799610  0.250000
N330  N  0.583236  0.799610  0.324074
N331  N  0.583236  0.799610  0.398148
N332  N  0.583236  0.799610  0.472222
N333  N  0.583236  0.799610  0.546296
N334  N  0.583236  0.799610  0.620370
N335  N  0.583236  0.799610  0.694444
N336  N  0.583236  0.799610  0.768519
N337  N  0.583236  0.799610  0.842593
N338  N  0.583236  0.799610  0.916667
N339  N  0.583236  0.888455  0.027778
N340  N  0.583236  0.888455  0.101852
N341  N  0.583236  0.888455  0.175926
N342  N  0.583236  0.888455  0.250000
N343  N  0.583236  0.888455  0.324074
N344  N  0.583236  0.888455  0.398148
N345  N  0.583236  0.888455  0.472222
N346  N  0.583236  0.888455  0.546296
N347  N  0.583236  0.888455  0.620370
N348  N  0.583236  0.888455  0.694444
N349  N  0.583236  0.888455  0.768519
N350  N  0.583236  0.888455  0.842593
N351  N  0.583236  0.888455  0.916667
N352  N  0.717829 -0.000000  0.027778
N353  N  0.717829 -0.000000  0.101852
N354  N  0.717829 -0.000000  0.175926
N355  N  0.717829 -0.000000  0.250000
N356  N  0.717829 -0.000000  0.324074
N357  N  0.717829 -0.000000  0.398148
N358  N  0.717829 -0.000000  0.472222
N359  N  0.717829 -0.000000  0.546296
N360  N  0.717829 -0.000000  0.620370
N361  N  0.717829 -0.000000  0.694444
N362  N  0.717829 -0.000000  0.768519
N363  N  0.717829 -0.000000  0.842593
N364  N  0.717829 -0.000000  0.916667
N365  N  0.717829  0.088846  0.027778
N366  N  0.717829  0.088846  0.101852
N367  N  0.717829  0.088846  0.175926
N368  N  0.717829  0.088846  0.250000
N369  N  0.717829  0.088846  0.324074
N370  N  0.717829  0.088846  0.398148
N371  N  0.717829  0.088846  0.472222
N372  N  0.717829  0.088846  0.546296
N373  N  0.717829  0.088846  0.620370
N374  N  0.717829  0.088846  0.694444
N375  N  0.717829  0.088846  0.768519
N376  N  0.717829  0.088846  0.842593
N377  N  0.717829  0.088846  0.916667
N378  N  0.717829  0.177691  0.027778
N379  N  0.717829  0.177691  0.101852
N380  N  0.717829  0.177691  0.175926
N381  N  0.717829  0.177691  0.250000
N382  N  0.717829  0.177691  0.324074
N383  N  0.717829  0.177691  0.398148
N384  N  0.717829  0.177691  0.472222
N385  N  0.717829  0.177691  0.546296
N386  N  0.717829  0.177691  0.620370
N387  N  0.717829  0.177691  0.694444
N388  N  0.717829  0.177691  0.768519
N389  N  0.717829  0.177691  0.842593
N390  N  0.717829  0.177691  0.916667
N391  N  0.717829  0.266537  0.027778
N392  N  0.717829  0.266537  0.101852
N393  N  0.717829  0.266537  0.175926
N394  N  0.717829  0.266537  0.250000
N395  N  0.717829  0.266537  0.324074
N396  N  0.717829  0.266537  0.398148
N397  N  0.717829  0.266537  0.472222
N398  N  0.717829  0.266537  0.546296
N399  N  0.717829  0.266537  0.620370
N400  N  0.717829  0.266537  0.694444
N401  N  0.717829  0.266537  0.768519
N402  N  0.717829  0.266537  0.842593
N403  N  0.717829  0.266537  0.916667
N404  N  0.717829  0.355382  0.027778
N405  N  0.717829  0.355382  0.101852
N406  N  0.717829  0.355382  0.175926
N407  N  0.717829  0.355382  0.250000
N408  N  0.717829  0.355382  0.324074
N409  N  0.717829  0.355382  0.398148
N410  N  0.717829  0.355382  0.472222
N411  N  0.717829  0.355382  0.546296
N412  N  0.717829  0.355382  0.620370
N413  N  0.717829  0.355382  0.694444
N414  N  0.717829  0.355382  0.768519
N415  N  0.717829  0.355382  0.842593
N416  N  0.717829  0.355382  0.916667
N417  N  0.717829  0.444228  0.027778
N418  N  0.717829  0.444228  0.101852
N419  N  0.717829  0.444228  0.175926
N420  N  0.717829  0.444228  0.250000
N421  N  0.717829  0.444228  0.324074
N422  N  0.717829  0.444228  0.398148
N423  N  0.717829  0.444228  0.472222
N424  N  0.717829  0.444228  0.546296
N425  N  0.717829  0.444228  0.620370
N426  N  0.717829  0.444228  0.694444
N427  N  0.717829  0.444228  0.768519
N428  N  0.717829  0.444228  0.842593
N429  N  0.717829  0.444228  0.916667
N430  N  0.717829  0.533073  0.027778
N431  N  0.717829  0.533073  0.101852
N432  N  0.717829  0.533073  0.175926
N433  N  0.717829  0.533073  0.250000
N434  N  0.717829  0.533073  0.324074
N435  N  0.717829  0.533073  0.398148
N436  N  0.717829  0.533073  0.472222
N437  N  0.717829  0.533073  0.546296
N438  N  0.717829  0.533073  0.620370
N439  N  0.717829  0.533073  0.694444
N440  N  0.717829  0.533073  0.768519
N441  N  0.717829  0.533073  0.842593
N442  N  0.717829  0.533073  0.916667
N443  N  0.717829  0.621919  0.027778
N444  N  0.717829  0.621919  0.101852
N445  N  0.717829  0.621919  0.175926
N446  N  0.717829  0.621919  0.250000
N447  N  0.717829  0.621919  0.324074
N448  N  0.717829  0.621919  0.398148
N449  N  0.717829  0.621919  0.472222
N450  N  0.717829  0.621919  0.546296
N451  N  0.717829  0.621919  0.620370
N452  N  0.717829  0.621919  0.694444
N453  N  0.717829  0.621919  0.768519
N454  N  0.717829  0.621919  0.842593
N455  N  0.717829  0.621919  0.916667
N456  N  0.717829  0.710764  0.027778
N457  N  0.717829  0.710764  0.101852
N458  N  0.717829  0.710764  0.175926
N459  N  0.717829  0.710764  0.250000
N460  N  0.717829  0.710764  0.324074
N461  N  0.717829  0.710764  0.398148
N462  N  0.717829  0.710764  0.472222
N463  N  0.717829  0.710764  0.546296
N464  N  0.717829  0.710764  0.620370
N465  N  0.717829  0.710764  0.694444
N466  N  0.717829  0.710764  0.768519
N467  N  0.717829  0.710764  0.842593
N468  N  0.717829  0.710764  0.916667
N469  N  0.717829  0.799610  0.027778
N470  N  0.717829  0.799610  0.101852
N471  N  0.717829  0.799610  0.175926
N472  N  0.717829  0.799610  0.250000
N473  N  0.717829  0.799610  0.324074
N474  N  0.717829  0.799610  0.398148
N475  N  0.717829  0.799610  0.472222
N476  N  0.717829  0.799610  0.546296
N477  N  0.717829  0.799610  0.620370
N478  N  0.717829  0.799610  0.694444
N479  N  0.717829  0.799610  0.768519
N480  N  0.717829  0.799610  0.842593
N481  N  0.717829  0.799610  0.916667
N482  N  0.717829  0.888455  0.027778
N483  N  0.717829  0.888455  0.101852
N484  N  0.717829  0.888455  0.175926
N485  N  0.717829  0.888455  0.250000
N486  N  0.717829  0.888455  0.324074
N487  N  0.717829  0.888455  0.398148
N488  N  0.717829  0.888455  0.472222
N489  N  0.717829  0.888455  0.546296
N490  N  0.717829  0.888455  0.620370
N491  N  0.717829  0.888455  0.694444
N492  N  0.717829  0.888455  0.768519
N493  N  0.717829  0.888455  0.842593
N494  N  0.717829  0.888455  0.916667
N495  N  0.852422 -0.000000  0.027778
N496  N  0.852422 -0.000000  0.101852
N497  N  0.852422 -0.000000  0.175926
N498  N  0.852422 -0.000000  0.250000
N499  N  0.852422 -0.000000  0.324074
N500  N  0.852422 -0.000000  0.398148
N501  N  0.852422 -0.000000  0.472222
N502  N  0.852422 -0.000000  0.546296
N503  N  0.852422 -0.000000  0.620370
N504  N  0.852422 -0.000000  0.694444
N505  N  0.852422 -0.000000  0.768519
N506  N  0.852422 -0.000000  0.842593
N507  N  0.852422 -0.000000  0.916667
N508  N  0.852422  0.088846  0.027778
N509  N  0.852422  0.088846  0.101852
N510  N  0.852422  0.088846  0.175926
N511  N  0.852422  0.088846  0.250000
N512  N  0.852422  0.088846  0.324074
N513  N  0.852422  0.088846  0.398148
N514  N  0.852422  0.088846  0.472222
N515  N  0.852422  0.088846  0.546296
N516  N  0.852422  0.088846  0.620370
N517  N  0.852422  0.088846  0.694444
N518  N  0.852422  0.088846  0.768519
N519  N  0.852422  0.088846  0.842593
N520  N  0.852422  0.088846  0.916667
N521  N  0.852422  0.177691  0.027778
N522  N  0.852422  0.177691  0.101852
N523  N  0.852422  0.177691  0.175926
N524  N  0.852422  0.177691  0.250000
N525  N  0.852422  0.177691  0.324074
N526  N  0.852422  0.177691  0.398148
N527  N  0.852422  0.177691  0.472222
N528  N  0.852422  0.177691  0.546296
N529  N  0.852422  0.177691  0.620370
N530  N  0.852422  0.177691  0.694444
N531  N  0.852422  0.177691  0.768519
N532  N  0.852422  0.177691  0.842593
N533  N  0.852422  0.177691  0.916667
N534  N  0.852422  0.266537  0.027778
N535  N  0.852422  0.266537  0.101852
N536  N  0.852422  0.266537  0.175926
N537  N  0.852422  0.266537  0.250000
N538  N  0.852422  0.266537  0.324074
N539  N  0.852422  0.266537  0.398148
N540  N  0.852422  0.266537  0.472222
N541  N  0.852422  0.266537  0.546296
N542  N  0.852422  0.266537  0.620370
N543  N  0.852422  0.266537  0.694444
N544  N  0.852422  0.266537  0.768519
N545  N  0.852422  0.266537  0.842593
N546  N  0.852422  0.266537  0.916667
N547  N  0.852422  0.355382  0.027778
N548  N  0.852422  0.355382  0.101852
N549  N  0.852422  0.355382  0.175926
N550  N  0.852422  0.355382  0.250000
N551  N  0.852422  0.355382  0.324074
N552  N  0.852422  0.355382  0.398148
N553  N  0.852422  0.355382  0.472222
N554  N  0.852422  0.355382  0.546296
N555  N  0.852422  0.355382  0.620370
N556  N  0.852422  0.355382  0.694444
N557  N  0.852422  0.355382  0.768519
N558  N  0.852422  0.355382  0.842593
N559  N  0.852422  0.355382  0.916667
N560  N  0.852422  0.444228  0.027778
N561  N  0.852422  0.444228  0.101852
N562  N  0.852422  0.444228  0.175926
N563  N  0.852422  0.444228  0.250000
N564  N  0.852422  0.444228  0.324074
N565  N  0.852422  0.444228  0.398148
N566  N  0.852422  0.444228  0.472222
N567  N  0.852422  0.444228  0.546296
N568  N  0.852422  0.444228  0.620370
N569  N  0.852422  0.444228  0.694444
N570  N  0.852422  0.444228  0.768519
N571  N  0.852422  0.444228  0.842593
N572  N  0.852422  0.444228  0.916667
N573  N  0.852422  0.533073  0.027778
N574  N  0.852422  0.533073  0.101852
N575  N  0.852422  0.533073  0.175926
N576  N  0.852422  0.533073  0.250000
N577  N  0.852422  0.533073  0.324074
N578  N  0.852422  0.533073  0.398148
N579  N  0.852422  0.533073  0.472222
N580  N  0.852422  0.533073  0.546296
N581  N  0.852422  0.533073  0.620370
N582  N  0.852422  0.533073  0.694444
N583  N  0.852422  0.533073  0.768519
N584  N  0.852422  0.533073  0.842593
N585  N  0.852422  0.533073  0.916667
N586  N  0.852422  0.621919  0.027778
N587  N  0.852422  0.621919  0.101852
N588  N  0.852422  0.621919  0.175926
N589  N  0.852422  0.621919  0.250000
N590  N  0.852422  0.621919  0.324074
N591  N  0.852422  0.621919  0.398148
N592  N  0.852422  0.621919  0.472222
N593  N  0.852422  0.621919  0.546296
N594  N  0.852422  0.621919  0.620370
N595  N  0.852422  0.621919  0.694444
N596  N  0.852422  0.621919  0.768519
N597  N  0.852422  0.621919  0.842593
N598  N  0.852422  0.621919  0.916667
N599  N  0.852422  0.710764  0.027778
N600  N  0.852422  0.710764  0.101852
N601  N  0.852422  0.710764  0.175926
N602  N  0.852422  0.710764  0.250000
N603  N  0.852422  0.710764  0.324074
N604  N  0.852422  0.710764  0.398148
N605  N  0.852422  0.710764  0.472222
N606  N  0.852422  0.710764  0.546296
N607  N  0.852422  0.710764  0.620370
N608  N  0.852422  0.710764  0.694444
N609  N  0.852422  0.710764  0.768519
N610  N  0.852422  0.710764  0.842593
N611  N  0.852422  0.710764  0.916667
N612  N  0.852422  0.799610  0.027778
N613  N  0.852422  0.799610  0.101852
N614  N  0.852422  0.799610  0.175926
N615  N  0.852422  0.799610  0.250000
N616  N  0.852422  0.799610  0.324074
N617  N  0.852422  0.799610  0.398148
N618  N  0.852422  0.799610  0.472222
N619  N  0.852422  0.799610  0.546296
N620  N  0.852422  0.799610  0.620370
N621  N  0.852422  0.799610  0.694444
N622  N  0.852422  0.799610  0.768519
N623  N  0.852422  0.799610  0.842593
N624  N  0.852422  0.799610  0.916667
N625  N  0.852422  0.888455  0.027778
N626  N  0.852422  0.888455  0.101852
N627  N  0.852422  0.888455  0.175926
N628  N  0.852422  0.888455  0.250000
N629  N  0.852422  0.888455  0.324074
N630  N  0.852422  0.888455  0.398148
N631  N  0.852422  0.888455  0.472222
N632  N  0.852422  0.888455  0.546296
N633  N  0.852422  0.888455  0.620370
N634  N  0.852422  0.888455  0.694444
N635  N  0.852422  0.888455  0.768519
N636  N  0.852422  0.888455  0.842593
N637  N  0.852422  0.888455  0.916667
N638  N  0.987016  0.177691  0.027778
N639  N  0.987016  0.177691  0.101852
N640  N  0.987016  0.177691  0.175926
N641  N  0.987016  0.177691  0.250000
N642  N  0.987016  0.177691  0.324074
N643  N  0.987016  0.177691  0.398148
N644  N  0.987016  0.177691  0.472222
N645  N  0.987016  0.177691  0.546296
N646  N  0.987016  0.177691  0.620370
N647  N  0.987016  0.177691  0.694444
N648  N  0.987016  0.177691  0.768519
N649  N  0.987016  0.177691  0.842593
N650  N  0.987016  0.177691  0.916667
N651  N  0.987016  0.266537  0.027778
N652  N  0.987016  0.266537  0.101852
N653  N  0.987016  0.266537  0.175926
N654  N  0.987016  0.266537  0.250000
N655  N  0.987016  0.266537  0.324074
N656  N  0.987016  0.266537  0.398148
N657  N  0.987016  0.266537  0.472222
N658  N  0.987016  0.266537  0.546296
N659  N  0.987016  0.266537  0.620370
N660  N  0.987016  0.266537  0.694444
N661  N  0.987016  0.266537  0.768519
N662  N  0.987016  0.266537  0.842593
N663  N  0.987016  0.266537  0.916667
N664  N  0.987016  0.355382  0.027778
N665  N  0.987016  0.355382  0.101852
N666  N  0.987016  0.355382  0.175926
N667  N  0.987016  0.355382  0.250000
N668  N  0.987016  0.355382  0.324074
N669  N  0.987016  0.355382  0.398148
N670  N  0.987016  0.355382  0.472222
N671  N  0.987016  0.355382  0.546296
N672  N  0.987016  0.355382  0.620370
N673  N  0.987016  0.355382  0.694444
N674  N  0.987016  0.355382  0.768519
N675  N  0.987016  0.355382  0.842593
N676  N  0.987016  0.355382  0.916667
N677  N  0.987016  0.444228  0.027778
N678  N  0.987016  0.444228  0.101852
N679  N  0.987016  0.444228  0.175926
N680  N  0.987016  0.444228  0.250000
N681  N  0.987016  0.444228  0.324074
N682  N  0.987016  0.444228  0.398148
N683  N  0.987016  0.444228  0.472222
N684  N  0.987016  0.444228  0.546296
N685  N  0.987016  0.444228  0.620370
N686  N  0.987016  0.444228  0.694444
N687  N  0.987016  0.444228  0.768519
N688  N  0.987016  0.444228  0.842593
N689  N  0.987016  0.444228  0.916667
N690  N  0.987016  0.533073  0.027778
N691  N  0.987016  0.533073  0.101852
N692  N  0.987016  0.533073  0.175926
N693  N  0.987016  0.533073  0.250000
N694  N  0.987016  0.533073  0.324074
N695  N  0.987016  0.533073  0.398148
N696  N  0.987016  0.533073  0.472222
N697  N  0.987016  0.533073  0.546296
N698  N  0.987016  0.533073  0.620370
N699  N  0.987016  0.533073  0.694444
N700  N  0.987016  0.533073  0.768519
N701  N  0.987016  0.533073  0.842593
N702  N  0.987016  0.533073  0.916667
N703  N  0.987016  0.621919  0.027778
N704  N  0.987016  0.621919  0.101852
N705  N  0.987016  0.621919  0.175926
N706  N  0.987016  0.621919  0.250000
N707  N  0.987016  0.621919  0.324074
N708  N  0.987016  0.621919  0.398148
N709  N  0.987016  0.621919  0.472222
N710  N  0.987016  0.621919  0.546296
N711  N  0.987016  0.621919  0.620370
N712  N  0.987016  0.621919  0.694444
N713  N  0.987016  0.621919  0.768519
N714  N  0.987016  0.621919  0.842593
N715  N  0.987016  0.621919  0.916667
N716  N  0.987016  0.710764  0.027778
N717  N  0.987016  0.710764  0.101852
N718  N  0.987016  0.710764  0.175926
N719  N  0.987016  0.710764  0.250000
N720  N  0.987016  0.710764  0.324074
N721  N  0.987016  0.710764  0.398148
N722  N  0.987016  0.710764  0.472222
N723  N  0.987016  0.710764  0.546296
N724  N  0.987016  0.710764  0.620370
N725  N  0.987016  0.710764  0.694444
N726  N  0.987016  0.710764  0.768519
N727  N  0.987016  0.710764  0.842593
N728  N  0.987016  0.710764  0.916667
N729  N  1.121609  0.444228  0.027778
N730  N  1.121609  0.444228  0.101852
N731  N  1.121609  0.444228  0.175926
N732  N  1.121609  0.444228  0.250000
N733  N  1.121609  0.444228  0.324074
N734  N  1.121609  0.444228  0.398148
N735  N  1.121609  0.444228  0.472222
N736  N  1.121609  0.444228  0.546296
N737  N  1.121609  0.444228  0.620370
N738  N  1.121609  0.444228  0.694444
N739  N  1.121609  0.444228  0.768519
N740  N  1.121609  0.444228  0.842593
N741  N  1.121609  0.444228  0.916667
N742  N  0.246754  0.399805  0.027778
N743  N  0.246754  0.399805  0.101852
N744  N  0.246754  0.399805  0.175926
N745  N  0.246754  0.399805  0.250000
N746  N  0.246754  0.399805  0.324074
N747  N  0.246754  0.399805  0.398148
N748  N  0.246754  0.399805  0.472222
N749  N  0.246754  0.399805  0.546296
N750  N  0.246754  0.399805  0.620370
N751  N  0.246754  0.399805  0.694444
N752  N  0.246754  0.399805  0.768519
N753  N  0.246754  0.399805  0.842593
N754  N  0.246754  0.399805  0.916667
N755  N  0.246754  0.488650  0.027778
N756  N  0.246754  0.488650  0.101852
N757  N  0.246754  0.488650  0.175926
N758  N  0.246754  0.488650  0.250000
N759  N  0.246754  0.488650  0.324074
N760  N  0.246754  0.488650  0.398148
N761  N  0.246754  0.488650  0.472222
N762  N  0.246754  0.488650  0.546296
N763  N  0.246754  0.488650  0.620370
N764  N  0.246754  0.488650  0.694444
N765  N  0.246754  0.488650  0.768519
N766  N  0.246754  0.488650  0.842593
N767  N  0.246754  0.488650  0.916667
N768  N  0.381347  0.133268  0.027778
N769  N  0.381347  0.133268  0.101852
N770  N  0.381347  0.133268  0.175926
N771  N  0.381347  0.133268  0.250000
N772  N  0.381347  0.133268  0.324074
N773  N  0.381347  0.133268  0.398148
N774  N  0.381347  0.133268  0.472222
N775  N  0.381347  0.133268  0.546296
N776  N  0.381347  0.133268  0.620370
N777  N  0.381347  0.133268  0.694444
N778  N  0.381347  0.133268  0.768519
N779  N  0.381347  0.133268  0.842593
N780  N  0.381347  0.133268  0.916667
N781  N  0.381347  0.222114  0.027778
N782  N  0.381347  0.222114  0.101852
N783  N  0.381347  0.222114  0.175926
N784  N  0.381347  0.222114  0.250000
N785  N  0.381347  0.222114  0.324074
N786  N  0.381347  0.222114  0.398148
N787  N  0.381347  0.222114  0.472222
N788  N  0.381347  0.222114  0.546296
N789  N  0.381347  0.222114  0.620370
N790  N  0.381347  0.222114  0.694444
N791  N  0.381347  0.222114  0.768519
N792  N  0.381347  0.222114  0.842593
N793  N  0.381347  0.222114  0.916667
N794  N  0.381347  0.310959  0.027778
N795  N  0.381347  0.310959  0.101852
N796  N  0.381347  0.310959  0.175926
N797  N  0.381347  0.310959  0.250000
N798  N  0.381347  0.310959  0.324074
N799  N  0.381347  0.310959  0.398148
N800  N  0.381347  0.310959  0.472222
N801  N  0.381347  0.310959  0.546296
N802  N  0.381347  0.310959  0.620370
N803  N  0.381347  0.310959  0.694444
N804  N  0.381347  0.310959  0.768519
N805  N  0.381347  0.310959  0.842593
N806  N  0.381347  0.310959  0.916667
N807  N  0.381347  0.399805  0.027778
N808  N  0.381347  0.399805  0.101852
N809  N  0.381347  0.399805  0.175926
N810  N  0.381347  0.399805  0.250000
N811  N  0.381347  0.399805  0.324074
N812  N  0.381347  0.399805  0.398148
N813  N  0.381347  0.399805  0.472222
N814  N  0.381347  0.399805  0.546296
N815  N  0.381347  0.399805  0.620370
N816  N  0.381347  0.399805  0.694444
N817  N  0.381347  0.399805  0.768519
N818  N  0.381347  0.399805  0.842593
N819  N  0.381347  0.399805  0.916667
N820  N  0.381347  0.488650  0.027778
N821  N  0.381347  0.488650  0.101852
N822  N  0.381347  0.488650  0.175926
N823  N  0.381347  0.488650  0.250000
N824  N  0.381347  0.488650  0.324074
N825  N  0.381347  0.488650  0.398148
N826  N  0.381347  0.488650  0.472222
N827  N  0.381347  0.488650  0.546296
N828  N  0.381347  0.488650  0.620370
N829  N  0.381347  0.488650  0.694444
N830  N  0.381347  0.488650  0.768519
N831  N  0.381347  0.488650  0.842593
N832  N  0.381347  0.488650  0.916667
N833  N  0.381347  0.577496  0.027778
N834  N  0.381347  0.577496  0.101852
N835  N  0.381347  0.577496  0.175926
N836  N  0.381347  0.577496  0.250000
N837  N  0.381347  0.577496  0.324074
N838  N  0.381347  0.577496  0.398148
N839  N  0.381347  0.577496  0.472222
N840  N  0.381347  0.577496  0.546296
N841  N  0.381347  0.577496  0.620370
N842  N  0.381347  0.577496  0.694444
N843  N  0.381347  0.577496  0.768519
N844  N  0.381347  0.577496  0.842593
N845  N  0.381347  0.577496  0.916667
N846  N  0.381347  0.666341  0.027778
N847  N  0.381347  0.666341  0.101852
N848  N  0.381347  0.666341  0.175926
N849  N  0.381347  0.666341  0.250000
N850  N  0.381347  0.666341  0.324074
N851  N  0.381347  0.666341  0.398148
N852  N  0.381347  0.666341  0.472222
N853  N  0.381347  0.666341  0.546296
N854  N  0.381347  0.666341  0.620370
N855  N  0.381347  0.666341  0.694444
N856  N  0.381347  0.666341  0.768519
N857  N  0.381347  0.666341  0.842593
N858  N  0.381347  0.666341  0.916667
N859  N  0.381347  0.755187  0.027778
N860  N  0.381347  0.755187  0.101852
N861  N  0.381347  0.755187  0.175926
N862  N  0.381347  0.755187  0.250000
N863  N  0.381347  0.755187  0.324074
N864  N  0.381347  0.755187  0.398148
N865  N  0.381347  0.755187  0.472222
N866  N  0.381347  0.755187  0.546296
N867  N  0.381347  0.755187  0.620370
N868  N  0.381347  0.755187  0.694444
N869  N  0.381347  0.755187  0.768519
N870  N  0.381347  0.755187  0.842593
N871  N  0.381347  0.755187  0.916667
N872  N  0.515940  0.044423  0.027778
N873  N  0.515940  0.044423  0.101852
N874  N  0.515940  0.044423  0.175926
N875  N  0.515940  0.044423  0.250000
N876  N  0.515940  0.044423  0.324074
N877  N  0.515940  0.044423  0.398148
N878  N  0.515940  0.044423  0.472222
N879  N  0.515940  0.044423  0.546296
N880  N  0.515940  0.044423  0.620370
N881  N  0.515940  0.044423  0.694444
N882  N  0.515940  0.044423  0.768519
N883  N  0.515940  0.044423  0.842593
N884  N  0.515940  0.044423  0.916667
N885  N  0.515940  0.133268  0.027778
N886  N  0.515940  0.133268  0.101852
N887  N  0.515940  0.133268  0.175926
N888  N  0.515940  0.133268  0.250000
N889  N  0.515940  0.133268  0.324074
N890  N  0.515940  0.133268  0.398148
N891  N  0.515940  0.133268  0.472222
N892  N  0.515940  0.133268  0.546296
N893  N  0.515940  0.133268  0.620370
N894  N  0.515940  0.133268  0.694444
N895  N  0.515940  0.133268  0.768519
N896  N  0.515940  0.133268  0.842593
N897  N  0.515940  0.133268  0.916667
N898  N  0.515940  0.222114  0.027778
N899  N  0.515940  0.222114  0.101852
N900  N  0.515940  0.222114  0.175926
N901  N  0.515940  0.222114  0.250000
N902  N  0.515940  0.222114  0.324074
N903  N  0.515940  0.222114  0.398148
N904  N  0.515940  0.222114  0.472222
N905  N  0.515940  0.222114  0.546296
N906  N  0.515940  0.222114  0.620370
N907  N  0.515940  0.222114  0.694444
N908  N  0.515940  0.222114  0.768519
N909  N  0.515940  0.222114  0.842593
N910  N  0.515940  0.222114  0.916667
N911  N  0.515940  0.310959  0.027778
N912  N  0.515940  0.310959  0.101852
N913  N  0.515940  0.310959  0.175926
N914  N  0.515940  0.310959  0.250000
N915  N  0.515940  0.310959  0.324074
N916  N  0.515940  0.310959  0.398148
N917  N  0.515940  0.310959  0.472222
N918  N  0.515940  0.310959  0.546296
N919  N  0.515940  0.310959  0.620370
N920  N  0.515940  0.310959  0.694444
N921  N  0.515940  0.310959  0.768519
N922  N  0.515940  0.310959  0.842593
N923  N  0.515940  0.310959  0.916667
N924  N  0.515940  0.399805  0.027778
N925  N  0.515940  0.399805  0.101852
N926  N  0.515940  0.399805  0.175926
N927  N  0.515940  0.399805  0.250000
N928  N  0.515940  0.399805  0.324074
N929  N  0.515940  0.399805  0.398148
N930  N  0.515940  0.399805  0.472222
N931  N  0.515940  0.399805  0.546296
N932  N  0.515940  0.399805  0.620370
N933  N  0.515940  0.399805  0.694444
N934  N  0.515940  0.399805  0.768519
N935  N  0.515940  0.399805  0.842593
N936  N  0.515940  0.399805  0.916667
N937  N  0.515940  0.488650  0.027778
N938  N  0.515940  0.488650  0.101852
N939  N  0.515940  0.488650  0.175926
N940  N  0.515940  0.488650  0.250000
N941  N  0.515940  0.488650  0.324074
N942  N  0.515940  0.488650  0.398148
N943  N  0.515940  0.488650  0.472222
N944  N  0.515940  0.488650  0.546296
N945  N  0.515940  0.488650  0.620370
N946  N  0.515940  0.488650  0.694444
N947  N  0.515940  0.488650  0.768519
N948  N  0.515940  0.488650  0.842593
N949  N  0.515940  0.488650  0.916667
N950  N  0.515940  0.577496  0.027778
N951  N  0.515940  0.577496  0.101852
N952  N  0.515940  0.577496  0.175926
N953  N  0.515940  0.577496  0.250000
N954  N  0.515940  0.577496  0.324074
N955  N  0.515940  0.577496  0.398148
N956  N  0.515940  0.577496  0.472222
N957  N  0.515940  0.577496  0.546296
N958  N  0.515940  0.577496  0.620370
N959  N  0.515940  0.577496  0.694444
N960  N  0.515940  0.577496  0.768519
N961  N  0.515940  0.577496  0.842593
N962  N  0.515940  0.577496  0.916667
N963  N  0.515940  0.666341  0.027778
N964  N  0.515940  0.666341  0.101852
N965  N  0.515940  0.666341  0.175926
N966  N  0.515940  0.666341  0.250000
N967  N  0.515940  0.666341  0.324074
N968  N  0.515940  0.666341  0.398148
N969  N  0.515940  0.666341  0.472222
N970  N  0.515940  0.666341  0.546296
N971  N  0.515940  0.666341  0.620370
N972  N  0.515940  0.666341  0.694444
N973  N  0.515940  0.666341  0.768519
N974  N  0.515940  0.666341  0.842593
N975  N  0.515940  0.666341  0.916667
N976  N  0.515940  0.755187  0.027778
N977  N  0.515940  0.755187  0.101852
N978  N  0.515940  0.755187  0.175926
N979  N  0.515940  0.755187  0.250000
N980  N  0.515940  0.755187  0.324074
N981  N  0.515940  0.755187  0.398148
N982  N  0.515940  0.755187  0.472222
N983  N  0.515940  0.755187  0.546296
N984  N  0.515940  0.755187  0.620370
N985  N  0.515940  0.755187  0.694444
N986  N  0.515940  0.755187  0.768519
N987  N  0.515940  0.755187  0.842593
N988  N  0.515940  0.755187  0.916667
N989  N  0.515940  0.844032  0.027778
N990  N  0.515940  0.844032  0.101852
N991  N  0.515940  0.844032  0.175926
N992  N  0.515940  0.844032  0.250000
N993  N  0.515940  0.844032  0.324074
N994  N  0.515940  0.844032  0.398148
N995  N  0.515940  0.844032  0.472222
N996  N  0.515940  0.844032  0.546296
N997  N  0.515940  0.844032  0.620370
N998  N  0.515940  0.844032  0.694444
N999  N  0.515940  0.844032  0.768519
N1000  N  0.515940  0.844032  0.842593
N1001  N  0.515940  0.844032  0.916667
N1002  N  0.650533  0.044423  0.027778
N1003  N  0.650533  0.044423  0.101852
N1004  N  0.650533  0.044423  0.175926
N1005  N  0.650533  0.044423  0.250000
N1006  N  0.650533  0.044423  0.324074
N1007  N  0.650533  0.044423  0.398148
N1008  N  0.650533  0.044423  0.472222
N1009  N  0.650533  0.044423  0.546296
N1010  N  0.650533  0.044423  0.620370
N1011  N  0.650533  0.044423  0.694444
N1012  N  0.650533  0.044423  0.768519
N1013  N  0.650533  0.044423  0.842593
N1014  N  0.650533  0.044423  0.916667
N1015  N  0.650533  0.133268  0.027778
N1016  N  0.650533  0.133268  0.101852
N1017  N  0.650533  0.133268  0.175926
N1018  N  0.650533  0.133268  0.250000
N1019  N  0.650533  0.133268  0.324074
N1020  N  0.650533  0.133268  0.398148
N1021  N  0.650533  0.133268  0.472222
N1022  N  0.650533  0.133268  0.546296
N1023  N  0.650533  0.133268  0.620370
N1024  N  0.650533  0.133268  0.694444
N1025  N  0.650533  0.133268  0.768519
N1026  N  0.650533  0.133268  0.842593
N1027  N  0.650533  0.133268  0.916667
N1028  N  0.650533  0.222114  0.027778
N1029  N  0.650533  0.222114  0.101852
N1030  N  0.650533  0.222114  0.175926
N1031  N  0.650533  0.222114  0.250000
N1032  N  0.650533  0.222114  0.324074
N1033  N  0.650533  0.222114  0.398148
N1034  N  0.650533  0.222114  0.472222
N1035  N  0.650533  0.222114  0.546296
N1036  N  0.650533  0.222114  0.620370
N1037  N  0.650533  0.222114  0.694444
N1038  N  0.650533  0.222114  0.768519
N1039  N  0.650533  0.222114  0.842593
N1040  N  0.650533  0.222114  0.916667
N1041  N  0.650533  0.310959  0.027778
N1042  N  0.650533  0.310959  0.101852
N1043  N  0.650533  0.310959  0.175926
N1044  N  0.650533  0.310959  0.250000
N1045  N  0.650533  0.310959  0.324074
N1046  N  0.650533  0.310959  0.398148
N1047  N  0.650533  0.310959  0.472222
N1048  N  0.650533  0.310959  0.546296
N1049  N  0.650533  0.310959  0.620370
N1050  N  0.650533  0.310959  0.694444
N1051  N  0.650533  0.310959  0.768519
N1052  N  0.650533  0.310959  0.842593
N1053  N  0.650533  0.310959  0.916667
N1054  N  0.650533  0.399805  0.027778
N1055  N  0.650533  0.399805  0.101852
N1056  N  0.650533  0.399805  0.175926
N1057  N  0.650533  0.399805  0.250000
N1058  N  0.650533  0.399805  0.324074
N1059  N  0.650533  0.399805  0.398148
N1060  N  0.650533  0.399805  0.472222
N1061  N  0.650533  0.399805  0.546296
N1062  N  0.650533  0.399805  0.620370
N1063  N  0.650533  0.399805  0.694444
N1064  N  0.650533  0.399805  0.768519
N1065  N  0.650533  0.399805  0.842593
N1066  N  0.650533  0.399805  0.916667
N1067  N  0.650533  0.488650  0.027778
N1068  N  0.650533  0.488650  0.101852
N1069  N  0.650533  0.488650  0.175926
N1070  N  0.650533  0.488650  0.250000
N1071  N  0.650533  0.488650  0.324074
N1072  N  0.650533  0.488650  0.398148
N1073  N  0.650533  0.488650  0.472222
N1074  N  0.650533  0.488650  0.546296
N1075  N  0.650533  0.488650  0.620370
N1076  N  0.650533  0.488650  0.694444
N1077  N  0.650533  0.488650  0.768519
N1078  N  0.650533  0.488650  0.842593
N1079  N  0.650533  0.488650  0.916667
N1080  N  0.650533  0.577496  0.027778
N1081  N  0.650533  0.577496  0.101852
N1082  N  0.650533  0.577496  0.175926
N1083  N  0.650533  0.577496  0.250000
N1084  N  0.650533  0.577496  0.324074
N1085  N  0.650533  0.577496  0.398148
N1086  N  0.650533  0.577496  0.472222
N1087  N  0.650533  0.577496  0.546296
N1088  N  0.650533  0.577496  0.620370
N1089  N  0.650533  0.577496  0.694444
N1090  N  0.650533  0.577496  0.768519
N1091  N  0.650533  0.577496  0.842593
N1092  N  0.650533  0.577496  0.916667
N1093  N  0.650533  0.666341  0.027778
N1094  N  0.650533  0.666341  0.101852
N1095  N  0.650533  0.666341  0.175926
N1096  N  0.650533  0.666341  0.250000
N1097  N  0.650533  0.666341  0.324074
N1098  N  0.650533  0.666341  0.398148
N1099  N  0.650533  0.666341  0.472222
N1100  N  0.650533  0.666341  0.546296
N1101  N  0.650533  0.666341  0.620370
N1102  N  0.650533  0.666341  0.694444
N1103  N  0.650533  0.666341  0.768519
N1104  N  0.650533  0.666341  0.842593
N1105  N  0.650533  0.666341  0.916667
N1106  N  0.650533  0.755187  0.027778
N1107  N  0.650533  0.755187  0.101852
N1108  N  0.650533  0.755187  0.175926
N1109  N  0.650533  0.755187  0.250000
N1110  N  0.650533  0.755187  0.324074
N1111  N  0.650533  0.755187  0.398148
N1112  N  0.650533  0.755187  0.472222
N1113  N  0.650533  0.755187  0.546296
N1114  N  0.650533  0.755187  0.620370
N1115  N  0.650533  0.755187  0.694444
N1116  N  0.650533  0.755187  0.768519
N1117  N  0.650533  0.755187  0.842593
N1118  N  0.650533  0.755187  0.916667
N1119  N  0.650533  0.844032  0.027778
N1120  N  0.650533  0.844032  0.101852
N1121  N  0.650533  0.844032  0.175926
N1122  N  0.650533  0.844032  0.250000
N1123  N  0.650533  0.844032  0.324074
N1124  N  0.650533  0.844032  0.398148
N1125  N  0.650533  0.844032  0.472222
N1126  N  0.650533  0.844032  0.546296
N1127  N  0.650533  0.844032  0.620370
N1128  N  0.650533  0.844032  0.694444
N1129  N  0.650533  0.844032  0.768519
N1130  N  0.650533  0.844032  0.842593
N1131  N  0.650533  0.844032  0.916667
N1132  N  0.785126  0.044423  0.027778
N1133  N  0.785126  0.044423  0.101852
N1134  N  0.785126  0.044423  0.175926
N1135  N  0.785126  0.044423  0.250000
N1136  N  0.785126  0.044423  0.324074
N1137  N  0.785126  0.044423  0.398148
N1138  N  0.785126  0.044423  0.472222
N1139  N  0.785126  0.044423  0.546296
N1140  N  0.785126  0.044423  0.620370
N1141  N  0.785126  0.044423  0.694444
N1142  N  0.785126  0.044423  0.768519
N1143  N  0.785126  0.044423  0.842593
N1144  N  0.785126  0.044423  0.916667
N1145  N  0.785126  0.133268  0.027778
N1146  N  0.785126  0.133268  0.101852
N1147  N  0.785126  0.133268  0.175926
N1148  N  0.785126  0.133268  0.250000
N1149  N  0.785126  0.133268  0.324074
N1150  N  0.785126  0.133268  0.398148
N1151  N  0.785126  0.133268  0.472222
N1152  N  0.785126  0.133268  0.546296
N1153  N  0.785126  0.133268  0.620370
N1154  N  0.785126  0.133268  0.694444
N1155  N  0.785126  0.133268  0.768519
N1156  N  0.785126  0.133268  0.842593
N1157  N  0.785126  0.133268  0.916667
N1158  N  0.785126  0.222114  0.027778
N1159  N  0.785126  0.222114  0.101852
N1160  N  0.785126  0.222114  0.175926
N1161  N  0.785126  0.222114  0.250000
N1162  N  0.785126  0.222114  0.324074
N1163  N  0.785126  0.222114  0.398148
N1164  N  0.785126  0.222114  0.472222
N1165  N  0.785126  0.222114  0.546296
N1166  N  0.785126  0.222114  0.620370
N1167  N  0.785126  0.222114  0.694444
N1168  N  0.785126  0.222114  0.768519
N1169  N  0.785126  0.222114  0.842593
N1170  N  0.785126  0.222114  0.916667
N1171  N  0.785126  0.310959  0.027778
N1172  N  0.785126  0.310959  0.101852
N1173  N  0.785126  0.310959  0.175926
N1174  N  0.785126  0.310959  0.250000
N1175  N  0.785126  0.310959  0.324074
N1176  N  0.785126  0.310959  0.398148
N1177  N  0.785126  0.310959  0.472222
N1178  N  0.785126  0.310959  0.546296
N1179  N  0.785126  0.310959  0.620370
N1180  N  0.785126  0.310959  0.694444
N1181  N  0.785126  0.310959  0.768519
N1182  N  0.785126  0.310959  0.842593
N1183  N  0.785126  0.310959  0.916667
N1184  N  0.785126  0.399805  0.027778
N1185  N  0.785126  0.399805  0.101852
N1186  N  0.785126  0.399805  0.175926
N1187  N  0.785126  0.399805  0.250000
N1188  N  0.785126  0.399805  0.324074
N1189  N  0.785126  0.399805  0.398148
N1190  N  0.785126  0.399805  0.472222
N1191  N  0.785126  0.399805  0.546296
N1192  N  0.785126  0.399805  0.620370
N1193  N  0.785126  0.399805  0.694444
N1194  N  0.785126  0.399805  0.768519
N1195  N  0.785126  0.399805  0.842593
N1196  N  0.785126  0.399805  0.916667
N1197  N  0.785126  0.488650  0.027778
N1198  N  0.785126  0.488650  0.101852
N1199  N  0.785126  0.488650  0.175926
N1200  N  0.785126  0.488650  0.250000
N1201  N  0.785126  0.488650  0.324074
N1202  N  0.785126  0.488650  0.398148
N1203  N  0.785126  0.488650  0.472222
N1204  N  0.785126  0.488650  0.546296
N1205  N  0.785126  0.488650  0.620370
N1206  N  0.785126  0.488650  0.694444
N1207  N  0.785126  0.488650  0.768519
N1208  N  0.785126  0.488650  0.842593
N1209  N  0.785126  0.488650  0.916667
N1210  N  0.785126  0.577496  0.027778
N1211  N  0.785126  0.577496  0.101852
N1212  N  0.785126  0.577496  0.175926
N1213  N  0.785126  0.577496  0.250000
N1214  N  0.785126  0.577496  0.324074
N1215  N  0.785126  0.577496  0.398148
N1216  N  0.785126  0.577496  0.472222
N1217  N  0.785126  0.577496  0.546296
N1218  N  0.785126  0.577496  0.620370
N1219  N  0.785126  0.577496  0.694444
N1220  N  0.785126  0.577496  0.768519
N1221  N  0.785126  0.577496  0.842593
N1222  N  0.785126  0.577496  0.916667
N1223  N  0.785126  0.666341  0.027778
N1224  N  0.785126  0.666341  0.101852
N1225  N  0.785126  0.666341  0.175926
N1226  N  0.785126  0.666341  0.250000
N1227  N  0.785126  0.666341  0.324074
N1228  N  0.785126  0.666341  0.398148
N1229  N  0.785126  0.666341  0.472222
N1230  N  0.785126  0.666341  0.546296
N1231  N  0.785126  0.666341  0.620370
N1232  N  0.785126  0.666341  0.694444
N1233  N  0.785126  0.666341  0.768519
N1234  N  0.785126  0.666341  0.842593
N1235  N  0.785126  0.666341  0.916667
N1236  N  0.785126  0.755187  0.027778
N1237  N  0.785126  0.755187  0.101852
N1238  N  0.785126  0.755187  0.175926
N1239  N  0.785126  0.755187  0.250000
N1240  N  0.785126  0.755187  0.324074
N1241  N  0.785126  0.755187  0.398148
N1242  N  0.785126  0.755187  0.472222
N1243  N  0.785126  0.755187  0.546296
N1244  N  0.785126  0.755187  0.620370
N1245  N  0.785126  0.755187  0.694444
N1246  N  0.785126  0.755187  0.768519
N1247  N  0.785126  0.755187  0.842593
N1248  N  0.785126  0.755187  0.916667
N1249  N  0.785126  0.844032  0.027778
N1250  N  0.785126  0.844032  0.101852
N1251  N  0.785126  0.844032  0.175926
N1252  N  0.785126  0.844032  0.250000
N1253  N  0.785126  0.844032  0.324074
N1254  N  0.785126  0.844032  0.398148
N1255  N  0.785126  0.844032  0.472222
N1256  N  0.785126  0.844032  0.546296
N1257  N  0.785126  0.844032  0.620370
N1258  N  0.785126  0.844032  0.694444
N1259  N  0.785126  0.844032  0.768519
N1260  N  0.785126  0.844032  0.842593
N1261  N  0.785126  0.844032  0.916667
N1262  N  0.919719  0.044423  0.027778
N1263  N  0.919719  0.044423  0.101852
N1264  N  0.919719  0.044423  0.175926
N1265  N  0.919719  0.044423  0.250000
N1266  N  0.919719  0.044423  0.324074
N1267  N  0.919719  0.044423  0.398148
N1268  N  0.919719  0.044423  0.472222
N1269  N  0.919719  0.044423  0.546296
N1270  N  0.919719  0.044423  0.620370
N1271  N  0.919719  0.044423  0.694444
N1272  N  0.919719  0.044423  0.768519
N1273  N  0.919719  0.044423  0.842593
N1274  N  0.919719  0.044423  0.916667
N1275  N  0.919719  0.133268  0.027778
N1276  N  0.919719  0.133268  0.101852
N1277  N  0.919719  0.133268  0.175926
N1278  N  0.919719  0.133268  0.250000
N1279  N  0.919719  0.133268  0.324074
N1280  N  0.919719  0.133268  0.398148
N1281  N  0.919719  0.133268  0.472222
N1282  N  0.919719  0.133268  0.546296
N1283  N  0.919719  0.133268  0.620370
N1284  N  0.919719  0.133268  0.694444
N1285  N  0.919719  0.133268  0.768519
N1286  N  0.919719  0.133268  0.842593
N1287  N  0.919719  0.133268  0.916667
N1288  N  0.919719  0.222114  0.027778
N1289  N  0.919719  0.222114  0.101852
N1290  N  0.919719  0.222114  0.175926
N1291  N  0.919719  0.222114  0.250000
N1292  N  0.919719  0.222114  0.324074
N1293  N  0.919719  0.222114  0.398148
N1294  N  0.919719  0.222114  0.472222
N1295  N  0.919719  0.222114  0.546296
N1296  N  0.919719  0.222114  0.620370
N1297  N  0.919719  0.222114  0.694444
N1298  N  0.919719  0.222114  0.768519
N1299  N  0.919719  0.222114  0.842593
N1300  N  0.919719  0.222114  0.916667
N1301  N  0.919719  0.310959  0.027778
N1302  N  0.919719  0.310959  0.101852
N1303  N  0.919719  0.310959  0.175926
N1304  N  0.919719  0.310959  0.250000
N1305  N  0.919719  0.310959  0.324074
N1306  N  0.919719  0.310959  0.398148
N1307  N  0.919719  0.310959  0.472222
N1308  N  0.919719  0.310959  0.546296
N1309  N  0.919719  0.310959  0.620370
N1310  N  0.919719  0.310959  0.694444
N1311  N  0.919719  0.310959  0.768519
N1312  N  0.919719  0.310959  0.842593
N1313  N  0.919719  0.310959  0.916667
N1314  N  0.919719  0.399805  0.027778
N1315  N  0.919719  0.399805  0.101852
N1316  N  0.919719  0.399805  0.175926
N1317  N  0.919719  0.399805  0.250000
N1318  N  0.919719  0.399805  0.324074
N1319  N  0.919719  0.399805  0.398148
N1320  N  0.919719  0.399805  0.472222
N1321  N  0.919719  0.399805  0.546296
N1322  N  0.919719  0.399805  0.620370
N1323  N  0.919719  0.399805  0.694444
N1324  N  0.919719  0.399805  0.768519
N1325  N  0.919719  0.399805  0.842593
N1326  N  0.919719  0.399805  0.916667
N1327  N  0.919719  0.488650  0.027778
N1328  N  0.919719  0.488650  0.101852
N1329  N  0.919719  0.488650  0.175926
N1330  N  0.919719  0.488650  0.250000
N1331  N  0.919719  0.488650  0.324074
N1332  N  0.919719  0.488650  0.398148
N1333  N  0.919719  0.488650  0.472222
N1334  N  0.919719  0.488650  0.546296
N1335  N  0.919719  0.488650  0.620370
N1336  N  0.919719  0.488650  0.694444
N1337  N  0.919719  0.488650  0.768519
N1338  N  0.919719  0.488650  0.842593
N1339  N  0.919719  0.488650  0.916667
N1340  N  0.919719  0.577496  0.027778
N1341  N  0.919719  0.577496  0.101852
N1342  N  0.919719  0.577496  0.175926
N1343  N  0.919719  0.577496  0.250000
N1344  N  0.919719  0.577496  0.324074
N1345  N  0.919719  0.577496  0.398148
N1346  N  0.919719  0.577496  0.472222
N1347  N  0.919719  0.577496  0.546296
N1348  N  0.919719  0.577496  0.620370
N1349  N  0.919719  0.577496  0.694444
N1350  N  0.919719  0.577496  0.768519
N1351  N  0.919719  0.577496  0.842593
N1352  N  0.919719  0.577496  0.916667
N1353  N  0.919719  0.666341  0.027778
N1354  N  0.919719  0.666341  0.101852
N1355  N  0.919719  0.666341  0.175926
N1356  N  0.919719  0.666341  0.250000
N1357  N  0.919719  0.666341  0.324074
N1358  N  0.919719  0.666341  0.398148
N1359  N  0.919719  0.666341  0.472222
N1360  N  0.919719  0.666341  0.546296
N1361  N  0.919719  0.666341  0.620370
N1362  N  0.919719  0.666341  0.694444
N1363  N  0.919719  0.666341  0.768519
N1364  N  0.919719  0.666341  0.842593
N1365  N  0.919719  0.666341  0.916667
N1366  N  0.919719  0.755187  0.027778
N1367  N  0.919719  0.755187  0.101852
N1368  N  0.919719  0.755187  0.175926
N1369  N  0.919719  0.755187  0.250000
N1370  N  0.919719  0.755187  0.324074
N1371  N  0.919719  0.755187  0.398148
N1372  N  0.919719  0.755187  0.472222
N1373  N  0.919719  0.755187  0.546296
N1374  N  0.919719  0.755187  0.620370
N1375  N  0.919719  0.755187  0.694444
N1376  N  0.919719  0.755187  0.768519
N1377  N  0.919719  0.755187  0.842593
N1378  N  0.919719  0.755187  0.916667
N1379  N  0.919719  0.844032  0.027778
N1380  N  0.919719  0.844032  0.101852
N1381  N  0.919719  0.844032  0.175926
N1382  N  0.919719  0.844032  0.250000
N1383  N  0.919719  0.844032  0.324074
N1384  N  0.919719  0.844032  0.398148
N1385  N  0.919719  0.844032  0.472222
N1386  N  0.919719  0.844032  0.546296
N1387  N  0.919719  0.844032  0.620370
N1388  N  0.919719  0.844032  0.694444
N1389  N  0.919719  0.844032  0.768519
N1390  N  0.919719  0.844032  0.842593
N1391  N  0.919719  0.844032  0.916667
N1392  N  1.054312  0.310959  0.027778
N1393  N  1.054312  0.310959  0.101852
N1394  N  1.054312  0.310959  0.175926
N1395  N  1.054312  0.310959  0.250000
N1396  N  1.054312  0.310959  0.324074
N1397  N  1.054312  0.310959  0.398148
N1398  N  1.054312  0.310959  0.472222
N1399  N  1.054312  0.310959  0.546296
N1400  N  1.054312  0.310959  0.620370
N1401  N  1.054312  0.310959  0.694444
N1402  N  1.054312  0.310959  0.768519
N1403  N  1.054312  0.310959  0.842593
N1404  N  1.054312  0.310959  0.916667
N1405  N  1.054312  0.399805  0.027778
N1406  N  1.054312  0.399805  0.101852
N1407  N  1.054312  0.399805  0.175926
N1408  N  1.054312  0.399805  0.250000
N1409  N  1.054312  0.399805  0.324074
N1410  N  1.054312  0.399805  0.398148
N1411  N  1.054312  0.399805  0.472222
N1412  N  1.054312  0.399805  0.546296
N1413  N  1.054312  0.399805  0.620370
N1414  N  1.054312  0.399805  0.694444
N1415  N  1.054312  0.399805  0.768519
N1416  N  1.054312  0.399805  0.842593
N1417  N  1.054312  0.399805  0.916667
N1418  N  1.054312  0.488650  0.027778
N1419  N  1.054312  0.488650  0.101852
N1420  N  1.054312  0.488650  0.175926
N1421  N  1.054312  0.488650  0.250000
N1422  N  1.054312  0.488650  0.324074
N1423  N  1.054312  0.488650  0.398148
N1424  N  1.054312  0.488650  0.472222
N1425  N  1.054312  0.488650  0.546296
N1426  N  1.054312  0.488650  0.620370
N1427  N  1.054312  0.488650  0.694444
N1428  N  1.054312  0.488650  0.768519
N1429  N  1.054312  0.488650  0.842593
N1430  N  1.054312  0.488650  0.916667
N1431  N  1.054312  0.577496  0.027778
N1432  N  1.054312  0.577496  0.101852
N1433  N  1.054312  0.577496  0.175926
N1434  N  1.054312  0.577496  0.250000
N1435  N  1.054312  0.577496  0.324074
N1436  N  1.054312  0.577496  0.398148
N1437  N  1.054312  0.577496  0.472222
N1438  N  1.054312  0.577496  0.546296
N1439  N  1.054312  0.577496  0.620370
N1440  N  1.054312  0.577496  0.694444
N1441  N  1.054312  0.577496  0.768519
N1442  N  1.054312  0.577496  0.842593
N1443  N  1.054312  0.577496  0.916667
N1444  N  0.291618  0.310959  0.064815
N1445  N  0.291618  0.310959  0.138889
N1446  N  0.291618  0.310959  0.212963
N1447  N  0.291618  0.310959  0.287037
N1448  N  0.291618  0.310959  0.361111
N1449  N  0.291618  0.310959  0.435185
N1450  N  0.291618  0.310959  0.509259
N1451  N  0.291618  0.310959  0.583333
N1452  N  0.291618  0.310959  0.657407
N1453  N  0.291618  0.310959  0.731481
N1454  N  0.291618  0.310959  0.805556
N1455  N  0.291618  0.310959  0.879630
N1456  N  0.291618  0.310959  0.953704
N1457  N  0.291618  0.399805  0.064815
N1458  N  0.291618  0.399805  0.138889
N1459  N  0.291618  0.399805  0.212963
N1460  N  0.291618  0.399805  0.287037
N1461  N  0.291618  0.399805  0.361111
N1462  N  0.291618  0.399805  0.435185
N1463  N  0.291618  0.399805  0.509259
N1464  N  0.291618  0.399805  0.583333
N1465  N  0.291618  0.399805  0.657407
N1466  N  0.291618  0.399805  0.731481
N1467  N  0.291618  0.399805  0.805556
N1468  N  0.291618  0.399805  0.879630
N1469  N  0.291618  0.399805  0.953704
N1470  N  0.291618  0.488650  0.064815
N1471  N  0.291618  0.488650  0.138889
N1472  N  0.291618  0.488650  0.212963
N1473  N  0.291618  0.488650  0.287037
N1474  N  0.291618  0.488650  0.361111
N1475  N  0.291618  0.488650  0.435185
N1476  N  0.291618  0.488650  0.509259
N1477  N  0.291618  0.488650  0.583333
N1478  N  0.291618  0.488650  0.657407
N1479  N  0.291618  0.488650  0.731481
N1480  N  0.291618  0.488650  0.805556
N1481  N  0.291618  0.488650  0.879630
N1482  N  0.291618  0.488650  0.953704
N1483  N  0.291618  0.577496  0.064815
N1484  N  0.291618  0.577496  0.138889
N1485  N  0.291618  0.577496  0.212963
N1486  N  0.291618  0.577496  0.287037
N1487  N  0.291618  0.577496  0.361111
N1488  N  0.291618  0.577496  0.435185
N1489  N  0.291618  0.577496  0.509259
N1490  N  0.291618  0.577496  0.583333
N1491  N  0.291618  0.577496  0.657407
N1492  N  0.291618  0.577496  0.731481
N1493  N  0.291618  0.577496  0.805556
N1494  N  0.291618  0.577496  0.879630
N1495  N  0.291618  0.577496  0.953704
N1496  N  0.426211  0.044423  0.064815
N1497  N  0.426211  0.044423  0.138889
N1498  N  0.426211  0.044423  0.212963
N1499  N  0.426211  0.044423  0.287037
N1500  N  0.426211  0.044423  0.361111
N1501  N  0.426211  0.044423  0.435185
N1502  N  0.426211  0.044423  0.509259
N1503  N  0.426211  0.044423  0.583333
N1504  N  0.426211  0.044423  0.657407
N1505  N  0.426211  0.044423  0.731481
N1506  N  0.426211  0.044423  0.805556
N1507  N  0.426211  0.044423  0.879630
N1508  N  0.426211  0.044423  0.953704
N1509  N  0.426211  0.133268  0.064815
N1510  N  0.426211  0.133268  0.138889
N1511  N  0.426211  0.133268  0.212963
N1512  N  0.426211  0.133268  0.287037
N1513  N  0.426211  0.133268  0.361111
N1514  N  0.426211  0.133268  0.435185
N1515  N  0.426211  0.133268  0.509259
N1516  N  0.426211  0.133268  0.583333
N1517  N  0.426211  0.133268  0.657407
N1518  N  0.426211  0.133268  0.731481
N1519  N  0.426211  0.133268  0.805556
N1520  N  0.426211  0.133268  0.879630
N1521  N  0.426211  0.133268  0.953704
N1522  N  0.426211  0.222114  0.064815
N1523  N  0.426211  0.222114  0.138889
N1524  N  0.426211  0.222114  0.212963
N1525  N  0.426211  0.222114  0.287037
N1526  N  0.426211  0.222114  0.361111
N1527  N  0.426211  0.222114  0.435185
N1528  N  0.426211  0.222114  0.509259
N1529  N  0.426211  0.222114  0.583333
N1530  N  0.426211  0.222114  0.657407
N1531  N  0.426211  0.222114  0.731481
N1532  N  0.426211  0.222114  0.805556
N1533  N  0.426211  0.222114  0.879630
N1534  N  0.426211  0.222114  0.953704
N1535  N  0.426211  0.310959  0.064815
N1536  N  0.426211  0.310959  0.138889
N1537  N  0.426211  0.310959  0.212963
N1538  N  0.426211  0.310959  0.287037
N1539  N  0.426211  0.310959  0.361111
N1540  N  0.426211  0.310959  0.435185
N1541  N  0.426211  0.310959  0.509259
N1542  N  0.426211  0.310959  0.583333
N1543  N  0.426211  0.310959  0.657407
N1544  N  0.426211  0.310959  0.731481
N1545  N  0.426211  0.310959  0.805556
N1546  N  0.426211  0.310959  0.879630
N1547  N  0.426211  0.310959  0.953704
N1548  N  0.426211  0.399805  0.064815
N1549  N  0.426211  0.399805  0.138889
N1550  N  0.426211  0.399805  0.212963
N1551  N  0.426211  0.399805  0.287037
N1552  N  0.426211  0.399805  0.361111
N1553  N  0.426211  0.399805  0.435185
N1554  N  0.426211  0.399805  0.509259
N1555  N  0.426211  0.399805  0.583333
N1556  N  0.426211  0.399805  0.657407
N1557  N  0.426211  0.399805  0.731481
N1558  N  0.426211  0.399805  0.805556
N1559  N  0.426211  0.399805  0.879630
N1560  N  0.426211  0.399805  0.953704
N1561  N  0.426211  0.488650  0.064815
N1562  N  0.426211  0.488650  0.138889
N1563  N  0.426211  0.488650  0.212963
N1564  N  0.426211  0.488650  0.287037
N1565  N  0.426211  0.488650  0.361111
N1566  N  0.426211  0.488650  0.435185
N1567  N  0.426211  0.488650  0.509259
N1568  N  0.426211  0.488650  0.583333
N1569  N  0.426211  0.488650  0.657407
N1570  N  0.426211  0.488650  0.731481
N1571  N  0.426211  0.488650  0.805556
N1572  N  0.426211  0.488650  0.879630
N1573  N  0.426211  0.488650  0.953704
N1574  N  0.426211  0.577496  0.064815
N1575  N  0.426211  0.577496  0.138889
N1576  N  0.426211  0.577496  0.212963
N1577  N  0.426211  0.577496  0.287037
N1578  N  0.426211  0.577496  0.361111
N1579  N  0.426211  0.577496  0.435185
N1580  N  0.426211  0.577496  0.509259
N1581  N  0.426211  0.577496  0.583333
N1582  N  0.426211  0.577496  0.657407
N1583  N  0.426211  0.577496  0.731481
N1584  N  0.426211  0.577496  0.805556
N1585  N  0.426211  0.577496  0.879630
N1586  N  0.426211  0.577496  0.953704
N1587  N  0.426211  0.666341  0.064815
N1588  N  0.426211  0.666341  0.138889
N1589  N  0.426211  0.666341  0.212963
N1590  N  0.426211  0.666341  0.287037
N1591  N  0.426211  0.666341  0.361111
N1592  N  0.426211  0.666341  0.435185
N1593  N  0.426211  0.666341  0.509259
N1594  N  0.426211  0.666341  0.583333
N1595  N  0.426211  0.666341  0.657407
N1596  N  0.426211  0.666341  0.731481
N1597  N  0.426211  0.666341  0.805556
N1598  N  0.426211  0.666341  0.879630
N1599  N  0.426211  0.666341  0.953704
N1600  N  0.426211  0.755187  0.064815
N1601  N  0.426211  0.755187  0.138889
N1602  N  0.426211  0.755187  0.212963
N1603  N  0.426211  0.755187  0.287037
N1604  N  0.426211  0.755187  0.361111
N1605  N  0.426211  0.755187  0.435185
N1606  N  0.426211  0.755187  0.509259
N1607  N  0.426211  0.755187  0.583333
N1608  N  0.426211  0.755187  0.657407
N1609  N  0.426211  0.755187  0.731481
N1610  N  0.426211  0.755187  0.805556
N1611  N  0.426211  0.755187  0.879630
N1612  N  0.426211  0.755187  0.953704
N1613  N  0.426211  0.844032  0.064815
N1614  N  0.426211  0.844032  0.138889
N1615  N  0.426211  0.844032  0.212963
N1616  N  0.426211  0.844032  0.287037
N1617  N  0.426211  0.844032  0.361111
N1618  N  0.426211  0.844032  0.435185
N1619  N  0.426211  0.844032  0.509259
N1620  N  0.426211  0.844032  0.583333
N1621  N  0.426211  0.844032  0.657407
N1622  N  0.426211  0.844032  0.731481
N1623  N  0.426211  0.844032  0.805556
N1624  N  0.426211  0.844032  0.879630
N1625  N  0.426211  0.844032  0.953704
N1626  N  0.560804  0.044423  0.064815
N1627  N  0.560804  0.044423  0.138889
N1628  N  0.560804  0.044423  0.212963
N1629  N  0.560804  0.044423  0.287037
N1630  N  0.560804  0.044423  0.361111
N1631  N  0.560804  0.044423  0.435185
N1632  N  0.560804  0.044423  0.509259
N1633  N  0.560804  0.044423  0.583333
N1634  N  0.560804  0.044423  0.657407
N1635  N  0.560804  0.044423  0.731481
N1636  N  0.560804  0.044423  0.805556
N1637  N  0.560804  0.044423  0.879630
N1638  N  0.560804  0.044423  0.953704
N1639  N  0.560804  0.133268  0.064815
N1640  N  0.560804  0.133268  0.138889
N1641  N  0.560804  0.133268  0.212963
N1642  N  0.560804  0.133268  0.287037
N1643  N  0.560804  0.133268  0.361111
N1644  N  0.560804  0.133268  0.435185
N1645  N  0.560804  0.133268  0.509259
N1646  N  0.560804  0.133268  0.583333
N1647  N  0.560804  0.133268  0.657407
N1648  N  0.560804  0.133268  0.731481
N1649  N  0.560804  0.133268  0.805556
N1650  N  0.560804  0.133268  0.879630
N1651  N  0.560804  0.133268  0.953704
N1652  N  0.560804  0.222114  0.064815
N1653  N  0.560804  0.222114  0.138889
N1654  N  0.560804  0.222114  0.212963
N1655  N  0.560804  0.222114  0.287037
N1656  N  0.560804  0.222114  0.361111
N1657  N  0.560804  0.222114  0.435185
N1658  N  0.560804  0.222114  0.509259
N1659  N  0.560804  0.222114  0.583333
N1660  N  0.560804  0.222114  0.657407
N1661  N  0.560804  0.222114  0.731481
N1662  N  0.560804  0.222114  0.805556
N1663  N  0.560804  0.222114  0.879630
N1664  N  0.560804  0.222114  0.953704
N1665  N  0.560804  0.310959  0.064815
N1666  N  0.560804  0.310959  0.138889
N1667  N  0.560804  0.310959  0.212963
N1668  N  0.560804  0.310959  0.287037
N1669  N  0.560804  0.310959  0.361111
N1670  N  0.560804  0.310959  0.435185
N1671  N  0.560804  0.310959  0.509259
N1672  N  0.560804  0.310959  0.583333
N1673  N  0.560804  0.310959  0.657407
N1674  N  0.560804  0.310959  0.731481
N1675  N  0.560804  0.310959  0.805556
N1676  N  0.560804  0.310959  0.879630
N1677  N  0.560804  0.310959  0.953704
N1678  N  0.560804  0.399805  0.064815
N1679  N  0.560804  0.399805  0.138889
N1680  N  0.560804  0.399805  0.212963
N1681  N  0.560804  0.399805  0.287037
N1682  N  0.560804  0.399805  0.361111
N1683  N  0.560804  0.399805  0.435185
N1684  N  0.560804  0.399805  0.509259
N1685  N  0.560804  0.399805  0.583333
N1686  N  0.560804  0.399805  0.657407
N1687  N  0.560804  0.399805  0.731481
N1688  N  0.560804  0.399805  0.805556
N1689  N  0.560804  0.399805  0.879630
N1690  N  0.560804  0.399805  0.953704
N1691  N  0.560804  0.488650  0.064815
N1692  N  0.560804  0.488650  0.138889
N1693  N  0.560804  0.488650  0.212963
N1694  N  0.560804  0.488650  0.287037
N1695  N  0.560804  0.488650  0.361111
N1696  N  0.560804  0.488650  0.435185
N1697  N  0.560804  0.488650  0.509259
N1698  N  0.560804  0.488650  0.583333
N1699  N  0.560804  0.488650  0.657407
N1700  N  0.560804  0.488650  0.731481
N1701  N  0.560804  0.488650  0.805556
N1702  N  0.560804  0.488650  0.879630
N1703  N  0.560804  0.488650  0.953704
N1704  N  0.560804  0.577496  0.064815
N1705  N  0.560804  0.577496  0.138889
N1706  N  0.560804  0.577496  0.212963
N1707  N  0.560804  0.577496  0.287037
N1708  N  0.560804  0.577496  0.361111
N1709  N  0.560804  0.577496  0.435185
N1710  N  0.560804  0.577496  0.509259
N1711  N  0.560804  0.577496  0.583333
N1712  N  0.560804  0.577496  0.657407
N1713  N  0.560804  0.577496  0.731481
N1714  N  0.560804  0.577496  0.805556
N1715  N  0.560804  0.577496  0.879630
N1716  N  0.560804  0.577496  0.953704
N1717  N  0.560804  0.666341  0.064815
N1718  N  0.560804  0.666341  0.138889
N1719  N  0.560804  0.666341  0.212963
N1720  N  0.560804  0.666341  0.287037
N1721  N  0.560804  0.666341  0.361111
N1722  N  0.560804  0.666341  0.435185
N1723  N  0.560804  0.666341  0.509259
N1724  N  0.560804  0.666341  0.583333
N1725  N  0.560804  0.666341  0.657407
N1726  N  0.560804  0.666341  0.731481
N1727  N  0.560804  0.666341  0.805556
N1728  N  0.560804  0.666341  0.879630
N1729  N  0.560804  0.666341  0.953704
N1730  N  0.560804  0.755187  0.064815
N1731  N  0.560804  0.755187  0.138889
N1732  N  0.560804  0.755187  0.212963
N1733  N  0.560804  0.755187  0.287037
N1734  N  0.560804  0.755187  0.361111
N1735  N  0.560804  0.755187  0.435185
N1736  N  0.560804  0.755187  0.509259
N1737  N  0.560804  0.755187  0.583333
N1738  N  0.560804  0.755187  0.657407
N1739  N  0.560804  0.755187  0.731481
N1740  N  0.560804  0.755187  0.805556
N1741  N  0.560804  0.755187  0.879630
N1742  N  0.560804  0.755187  0.953704
N1743  N  0.560804  0.844032  0.064815
N1744  N  0.560804  0.844032  0.138889
N1745  N  0.560804  0.844032  0.212963
N1746  N  0.560804  0.844032  0.287037
N1747  N  0.560804  0.844032  0.361111
N1748  N  0.560804  0.844032  0.435185
N1749  N  0.560804  0.844032  0.509259
N1750  N  0.560804  0.844032  0.583333
N1751  N  0.560804  0.844032  0.657407
N1752  N  0.560804  0.844032  0.731481
N1753  N  0.560804  0.844032  0.805556
N1754  N  0.560804  0.844032  0.879630
N1755  N  0.560804  0.844032  0.953704
N1756  N  0.695397  0.044423  0.064815
N1757  N  0.695397  0.044423  0.138889
N1758  N  0.695397  0.044423  0.212963
N1759  N  0.695397  0.044423  0.287037
N1760  N  0.695397  0.044423  0.361111
N1761  N  0.695397  0.044423  0.435185
N1762  N  0.695397  0.044423  0.509259
N1763  N  0.695397  0.044423  0.583333
N1764  N  0.695397  0.044423  0.657407
N1765  N  0.695397  0.044423  0.731481
N1766  N  0.695397  0.044423  0.805556
N1767  N  0.695397  0.044423  0.879630
N1768  N  0.695397  0.044423  0.953704
N1769  N  0.695397  0.133268  0.064815
N1770  N  0.695397  0.133268  0.138889
N1771  N  0.695397  0.133268  0.212963
N1772  N  0.695397  0.133268  0.287037
N1773  N  0.695397  0.133268  0.361111
N1774  N  0.695397  0.133268  0.435185
N1775  N  0.695397  0.133268  0.509259
N1776  N  0.695397  0.133268  0.583333
N1777  N  0.695397  0.133268  0.657407
N1778  N  0.695397  0.133268  0.731481
N1779  N  0.695397  0.133268  0.805556
N1780  N  0.695397  0.133268  0.879630
N1781  N  0.695397  0.133268  0.953704
N1782  N  0.695397  0.222114  0.064815
N1783  N  0.695397  0.222114  0.138889
N1784  N  0.695397  0.222114  0.212963
N1785  N  0.695397  0.222114  0.287037
N1786  N  0.695397  0.222114  0.361111
N1787  N  0.695397  0.222114  0.435185
N1788  N  0.695397  0.222114  0.509259
N1789  N  0.695397  0.222114  0.583333
N1790  N  0.695397  0.222114  0.657407
N1791  N  0.695397  0.222114  0.731481
N1792  N  0.695397  0.222114  0.805556
N1793  N  0.695397  0.222114  0.879630
N1794  N  0.695397  0.222114  0.953704
N1795  N  0.695397  0.310959  0.064815
N1796  N  0.695397  0.310959  0.138889
N1797  N  0.695397  0.310959  0.212963
N1798  N  0.695397  0.310959  0.287037
N1799  N  0.695397  0.310959  0.361111
N1800  N  0.695397  0.310959  0.435185
N1801  N  0.695397  0.310959  0.509259
N1802  N  0.695397  0.310959  0.583333
N1803  N  0.695397  0.310959  0.657407
N1804  N  0.695397  0.310959  0.731481
N1805  N  0.695397  0.310959  0.805556
N1806  N  0.695397  0.310959  0.879630
N1807  N  0.695397  0.310959  0.953704
N1808  N  0.695397  0.399805  0.064815
N1809  N  0.695397  0.399805  0.138889
N1810  N  0.695397  0.399805  0.212963
N1811  N  0.695397  0.399805  0.287037
N1812  N  0.695397  0.399805  0.361111
N1813  N  0.695397  0.399805  0.435185
N1814  N  0.695397  0.399805  0.509259
N1815  N  0.695397  0.399805  0.583333
N1816  N  0.695397  0.399805  0.657407
N1817  N  0.695397  0.399805  0.731481
N1818  N  0.695397  0.399805  0.805556
N1819  N  0.695397  0.399805  0.879630
N1820  N  0.695397  0.399805  0.953704
N1821  N  0.695397  0.488650  0.064815
N1822  N  0.695397  0.488650  0.138889
N1823  N  0.695397  0.488650  0.212963
N1824  N  0.695397  0.488650  0.287037
N1825  N  0.695397  0.488650  0.361111
N1826  N  0.695397  0.488650  0.435185
N1827  N  0.695397  0.488650  0.509259
N1828  N  0.695397  0.488650  0.583333
N1829  N  0.695397  0.488650  0.657407
N1830  N  0.695397  0.488650  0.731481
N1831  N  0.695397  0.488650  0.805556
N1832  N  0.695397  0.488650  0.879630
N1833  N  0.695397  0.488650  0.953704
N1834  N  0.695397  0.577496  0.064815
N1835  N  0.695397  0.577496  0.138889
N1836  N  0.695397  0.577496  0.212963
N1837  N  0.695397  0.577496  0.287037
N1838  N  0.695397  0.577496  0.361111
N1839  N  0.695397  0.577496  0.435185
N1840  N  0.695397  0.577496  0.509259
N1841  N  0.695397  0.577496  0.583333
N1842  N  0.695397  0.577496  0.657407
N1843  N  0.695397  0.577496  0.731481
N1844  N  0.695397  0.577496  0.805556
N1845  N  0.695397  0.577496  0.879630
N1846  N  0.695397  0.577496  0.953704
N1847  N  0.695397  0.666341  0.064815
N1848  N  0.695397  0.666341  0.138889
N1849  N  0.695397  0.666341  0.212963
N1850  N  0.695397  0.666341  0.287037
N1851  N  0.695397  0.666341  0.361111
N1852  N  0.695397  0.666341  0.435185
N1853  N  0.695397  0.666341  0.509259
N1854  N  0.695397  0.666341  0.583333
N1855  N  0.695397  0.666341  0.657407
N1856  N  0.695397  0.666341  0.731481
N1857  N  0.695397  0.666341  0.805556
N1858  N  0.695397  0.666341  0.879630
N1859  N  0.695397  0.666341  0.953704
N1860  N  0.695397  0.755187  0.064815
N1861  N  0.695397  0.755187  0.138889
N1862  N  0.695397  0.755187  0.212963
N1863  N  0.695397  0.755187  0.287037
N1864  N  0.695397  0.755187  0.361111
N1865  N  0.695397  0.755187  0.435185
N1866  N  0.695397  0.755187  0.509259
N1867  N  0.695397  0.755187  0.583333
N1868  N  0.695397  0.755187  0.657407
N1869  N  0.695397  0.755187  0.731481
N1870  N  0.695397  0.755187  0.805556
N1871  N  0.695397  0.755187  0.879630
N1872  N  0.695397  0.755187  0.953704
N1873  N  0.695397  0.844032  0.064815
N1874  N  0.695397  0.844032  0.138889
N1875  N  0.695397  0.844032  0.212963
N1876  N  0.695397  0.844032  0.287037
N1877  N  0.695397  0.844032  0.361111
N1878  N  0.695397  0.844032  0.435185
N1879  N  0.695397  0.844032  0.509259
N1880  N  0.695397  0.844032  0.583333
N1881  N  0.695397  0.844032  0.657407
N1882  N  0.695397  0.844032  0.731481
N1883  N  0.695397  0.844032  0.805556
N1884  N  0.695397  0.844032  0.879630
N1885  N  0.695397  0.844032  0.953704
N1886  N  0.829990  0.044423  0.064815
N1887  N  0.829990  0.044423  0.138889
N1888  N  0.829990  0.044423  0.212963
N1889  N  0.829990  0.044423  0.287037
N1890  N  0.829990  0.044423  0.361111
N1891  N  0.829990  0.044423  0.435185
N1892  N  0.829990  0.044423  0.509259
N1893  N  0.829990  0.044423  0.583333
N1894  N  0.829990  0.044423  0.657407
N1895  N  0.829990  0.044423  0.731481
N1896  N  0.829990  0.044423  0.805556
N1897  N  0.829990  0.044423  0.879630
N1898  N  0.829990  0.044423  0.953704
N1899  N  0.829990  0.133268  0.064815
N1900  N  0.829990  0.133268  0.138889
N1901  N  0.829990  0.133268  0.212963
N1902  N  0.829990  0.133268  0.287037
N1903  N  0.829990  0.133268  0.361111
N1904  N  0.829990  0.133268  0.435185
N1905  N  0.829990  0.133268  0.509259
N1906  N  0.829990  0.133268  0.583333
N1907  N  0.829990  0.133268  0.657407
N1908  N  0.829990  0.133268  0.731481
N1909  N  0.829990  0.133268  0.805556
N1910  N  0.829990  0.133268  0.879630
N1911  N  0.829990  0.133268  0.953704
N1912  N  0.829990  0.222114  0.064815
N1913  N  0.829990  0.222114  0.138889
N1914  N  0.829990  0.222114  0.212963
N1915  N  0.829990  0.222114  0.287037
N1916  N  0.829990  0.222114  0.361111
N1917  N  0.829990  0.222114  0.435185
N1918  N  0.829990  0.222114  0.509259
N1919  N  0.829990  0.222114  0.583333
N1920  N  0.829990  0.222114  0.657407
N1921  N  0.829990  0.222114  0.731481
N1922  N  0.829990  0.222114  0.805556
N1923  N  0.829990  0.222114  0.879630
N1924  N  0.829990  0.222114  0.953704
N1925  N  0.829990  0.310959  0.064815
N1926  N  0.829990  0.310959  0.138889
N1927  N  0.829990  0.310959  0.212963
N1928  N  0.829990  0.310959  0.287037
N1929  N  0.829990  0.310959  0.361111
N1930  N  0.829990  0.310959  0.435185
N1931  N  0.829990  0.310959  0.509259
N1932  N  0.829990  0.310959  0.583333
N1933  N  0.829990  0.310959  0.657407
N1934  N  0.829990  0.310959  0.731481
N1935  N  0.829990  0.310959  0.805556
N1936  N  0.829990  0.310959  0.879630
N1937  N  0.829990  0.310959  0.953704
N1938  N  0.829990  0.399805  0.064815
N1939  N  0.829990  0.399805  0.138889
N1940  N  0.829990  0.399805  0.212963
N1941  N  0.829990  0.399805  0.287037
N1942  N  0.829990  0.399805  0.361111
N1943  N  0.829990  0.399805  0.435185
N1944  N  0.829990  0.399805  0.509259
N1945  N  0.829990  0.399805  0.583333
N1946  N  0.829990  0.399805  0.657407
N1947  N  0.829990  0.399805  0.731481
N1948  N  0.829990  0.399805  0.805556
N1949  N  0.829990  0.399805  0.879630
N1950  N  0.829990  0.399805  0.953704
N1951  N  0.829990  0.488650  0.064815
N1952  N  0.829990  0.488650  0.138889
N1953  N  0.829990  0.488650  0.212963
N1954  N  0.829990  0.488650  0.287037
N1955  N  0.829990  0.488650  0.361111
N1956  N  0.829990  0.488650  0.435185
N1957  N  0.829990  0.488650  0.509259
N1958  N  0.829990  0.488650  0.583333
N1959  N  0.829990  0.488650  0.657407
N1960  N  0.829990  0.488650  0.731481
N1961  N  0.829990  0.488650  0.805556
N1962  N  0.829990  0.488650  0.879630
N1963  N  0.829990  0.488650  0.953704
N1964  N  0.829990  0.577496  0.064815
N1965  N  0.829990  0.577496  0.138889
N1966  N  0.829990  0.577496  0.212963
N1967  N  0.829990  0.577496  0.287037
N1968  N  0.829990  0.577496  0.361111
N1969  N  0.829990  0.577496  0.435185
N1970  N  0.829990  0.577496  0.509259
N1971  N  0.829990  0.577496  0.583333
N1972  N  0.829990  0.577496  0.657407
N1973  N  0.829990  0.577496  0.731481
N1974  N  0.829990  0.577496  0.805556
N1975  N  0.829990  0.577496  0.879630
N1976  N  0.829990  0.577496  0.953704
N1977  N  0.829990  0.666341  0.064815
N1978  N  0.829990  0.666341  0.138889
N1979  N  0.829990  0.666341  0.212963
N1980  N  0.829990  0.666341  0.287037
N1981  N  0.829990  0.666341  0.361111
N1982  N  0.829990  0.666341  0.435185
N1983  N  0.829990  0.666341  0.509259
N1984  N  0.829990  0.666341  0.583333
N1985  N  0.829990  0.666341  0.657407
N1986  N  0.829990  0.666341  0.731481
N1987  N  0.829990  0.666341  0.805556
N1988  N  0.829990  0.666341  0.879630
N1989  N  0.829990  0.666341  0.953704
N1990  N  0.829990  0.755187  0.064815
N1991  N  0.829990  0.755187  0.138889
N1992  N  0.829990  0.755187  0.212963
N1993  N  0.829990  0.755187  0.287037
N1994  N  0.829990  0.755187  0.361111
N1995  N  0.829990  0.755187  0.435185
N1996  N  0.829990  0.755187  0.509259
N1997  N  0.829990  0.755187  0.583333
N1998  N  0.829990  0.755187  0.657407
N1999  N  0.829990  0.755187  0.731481
N2000  N  0.829990  0.755187  0.805556
N2001  N  0.829990  0.755187  0.879630
N2002  N  0.829990  0.755187  0.953704
N2003  N  0.829990  0.844032  0.064815
N2004  N  0.829990  0.844032  0.138889
N2005  N  0.829990  0.844032  0.212963
N2006  N  0.829990  0.844032  0.287037
N2007  N  0.829990  0.844032  0.361111
N2008  N  0.829990  0.844032  0.435185
N2009  N  0.829990  0.844032  0.509259
N2010  N  0.829990  0.844032  0.583333
N2011  N  0.829990  0.844032  0.657407
N2012  N  0.829990  0.844032  0.731481
N2013  N  0.829990  0.844032  0.805556
N2014  N  0.829990  0.844032  0.879630
N2015  N  0.829990  0.844032  0.953704
N2016  N  0.964583  0.133268  0.064815
N2017  N  0.964583  0.133268  0.138889
N2018  N  0.964583  0.133268  0.212963
N2019  N  0.964583  0.133268  0.287037
N2020  N  0.964583  0.133268  0.361111
N2021  N  0.964583  0.133268  0.435185
N2022  N  0.964583  0.133268  0.509259
N2023  N  0.964583  0.133268  0.583333
N2024  N  0.964583  0.133268  0.657407
N2025  N  0.964583  0.133268  0.731481
N2026  N  0.964583  0.133268  0.805556
N2027  N  0.964583  0.133268  0.879630
N2028  N  0.964583  0.133268  0.953704
N2029  N  0.964583  0.222114  0.064815
N2030  N  0.964583  0.222114  0.138889
N2031  N  0.964583  0.222114  0.212963
N2032  N  0.964583  0.222114  0.287037
N2033  N  0.964583  0.222114  0.361111
N2034  N  0.964583  0.222114  0.435185
N2035  N  0.964583  0.222114  0.509259
N2036  N  0.964583  0.222114  0.583333
N2037  N  0.964583  0.222114  0.657407
N2038  N  0.964583  0.222114  0.731481
N2039  N  0.964583  0.222114  0.805556
N2040  N  0.964583  0.222114  0.879630
N2041  N  0.964583  0.222114  0.953704
N2042  N  0.964583  0.310959  0.064815
N2043  N  0.964583  0.310959  0.138889
N2044  N  0.964583  0.310959  0.212963
N2045  N  0.964583  0.310959  0.287037
N2046  N  0.964583  0.310959  0.361111
N2047  N  0.964583  0.310959  0.435185
N2048  N  0.964583  0.310959  0.509259
N2049  N  0.964583  0.310959  0.583333
N2050  N  0.964583  0.310959  0.657407
N2051  N  0.964583  0.310959  0.731481
N2052  N  0.964583  0.310959  0.805556
N2053  N  0.964583  0.310959  0.879630
N2054  N  0.964583  0.310959  0.953704
N2055  N  0.964583  0.399805  0.064815
N2056  N  0.964583  0.399805  0.138889
N2057  N  0.964583  0.399805  0.212963
N2058  N  0.964583  0.399805  0.287037
N2059  N  0.964583  0.399805  0.361111
N2060  N  0.964583  0.399805  0.435185
N2061  N  0.964583  0.399805  0.509259
N2062  N  0.964583  0.399805  0.583333
N2063  N  0.964583  0.399805  0.657407
N2064  N  0.964583  0.399805  0.731481
N2065  N  0.964583  0.399805  0.805556
N2066  N  0.964583  0.399805  0.879630
N2067  N  0.964583  0.399805  0.953704
N2068  N  0.964583  0.488650  0.064815
N2069  N  0.964583  0.488650  0.138889
N2070  N  0.964583  0.488650  0.212963
N2071  N  0.964583  0.488650  0.287037
N2072  N  0.964583  0.488650  0.361111
N2073  N  0.964583  0.488650  0.435185
N2074  N  0.964583  0.488650  0.509259
N2075  N  0.964583  0.488650  0.583333
N2076  N  0.964583  0.488650  0.657407
N2077  N  0.964583  0.488650  0.731481
N2078  N  0.964583  0.488650  0.805556
N2079  N  0.964583  0.488650  0.879630
N2080  N  0.964583  0.488650  0.953704
N2081  N  0.964583  0.577496  0.064815
N2082  N  0.964583  0.577496  0.138889
N2083  N  0.964583  0.577496  0.212963
N2084  N  0.964583  0.577496  0.287037
N2085  N  0.964583  0.577496  0.361111
N2086  N  0.964583  0.577496  0.435185
N2087  N  0.964583  0.577496  0.509259
N2088  N  0.964583  0.577496  0.583333
N2089  N  0.964583  0.577496  0.657407
N2090  N  0.964583  0.577496  0.731481
N2091  N  0.964583  0.577496  0.805556
N2092  N  0.964583  0.577496  0.879630
N2093  N  0.964583  0.577496  0.953704
N2094  N  0.964583  0.666341  0.064815
N2095  N  0.964583  0.666341  0.138889
N2096  N  0.964583  0.666341  0.212963
N2097  N  0.964583  0.666341  0.287037
N2098  N  0.964583  0.666341  0.361111
N2099  N  0.964583  0.666341  0.435185
N2100  N  0.964583  0.666341  0.509259
N2101  N  0.964583  0.666341  0.583333
N2102  N  0.964583  0.666341  0.657407
N2103  N  0.964583  0.666341  0.731481
N2104  N  0.964583  0.666341  0.805556
N2105  N  0.964583  0.666341  0.879630
N2106  N  0.964583  0.666341  0.953704
N2107  N  0.964583  0.755187  0.064815
N2108  N  0.964583  0.755187  0.138889
N2109  N  0.964583  0.755187  0.212963
N2110  N  0.964583  0.755187  0.287037
N2111  N  0.964583  0.755187  0.361111
N2112  N  0.964583  0.755187  0.435185
N2113  N  0.964583  0.755187  0.509259
N2114  N  0.964583  0.755187  0.583333
N2115  N  0.964583  0.755187  0.657407
N2116  N  0.964583  0.755187  0.731481
N2117  N  0.964583  0.755187  0.805556
N2118  N  0.964583  0.755187  0.879630
N2119  N  0.964583  0.755187  0.953704
N2120  N  1.099176  0.399805  0.064815
N2121  N  1.099176  0.399805  0.138889
N2122  N  1.099176  0.399805  0.212963
N2123  N  1.099176  0.399805  0.287037
N2124  N  1.099176  0.399805  0.361111
N2125  N  1.099176  0.399805  0.435185
N2126  N  1.099176  0.399805  0.509259
N2127  N  1.099176  0.399805  0.583333
N2128  N  1.099176  0.399805  0.657407
N2129  N  1.099176  0.399805  0.731481
N2130  N  1.099176  0.399805  0.805556
N2131  N  1.099176  0.399805  0.879630
N2132  N  1.099176  0.399805  0.953704
N2133  N  1.099176  0.488650  0.064815
N2134  N  1.099176  0.488650  0.138889
N2135  N  1.099176  0.488650  0.212963
N2136  N  1.099176  0.488650  0.287037
N2137  N  1.099176  0.488650  0.361111
N2138  N  1.099176  0.488650  0.435185
N2139  N  1.099176  0.488650  0.509259
N2140  N  1.099176  0.488650  0.583333
N2141  N  1.099176  0.488650  0.657407
N2142  N  1.099176  0.488650  0.731481
N2143  N  1.099176  0.488650  0.805556
N2144  N  1.099176  0.488650  0.879630
N2145  N  1.099176  0.488650  0.953704
N2146  N  0.224322  0.444228  0.064815
N2147  N  0.224322  0.444228  0.138889
N2148  N  0.224322  0.444228  0.212963
N2149  N  0.224322  0.444228  0.287037
N2150  N  0.224322  0.444228  0.361111
N2151  N  0.224322  0.444228  0.435185
N2152  N  0.224322  0.444228  0.509259
N2153  N  0.224322  0.444228  0.583333
N2154  N  0.224322  0.444228  0.657407
N2155  N  0.224322  0.444228  0.731481
N2156  N  0.224322  0.444228  0.805556
N2157  N  0.224322  0.444228  0.879630
N2158  N  0.224322  0.444228  0.953704
N2159  N  0.358915  0.177691  0.064815
N2160  N  0.358915  0.177691  0.138889
N2161  N  0.358915  0.177691  0.212963
N2162  N  0.358915  0.177691  0.287037
N2163  N  0.358915  0.177691  0.361111
N2164  N  0.358915  0.177691  0.435185
N2165  N  0.358915  0.177691  0.509259
N2166  N  0.358915  0.177691  0.583333
N2167  N  0.358915  0.177691  0.657407
N2168  N  0.358915  0.177691  0.731481
N2169  N  0.358915  0.177691  0.805556
N2170  N  0.358915  0.177691  0.879630
N2171  N  0.358915  0.177691  0.953704
N2172  N  0.358915  0.266537  0.064815
N2173  N  0.358915  0.266537  0.138889
N2174  N  0.358915  0.266537  0.212963
N2175  N  0.358915  0.266537  0.287037
N2176  N  0.358915  0.266537  0.361111
N2177  N  0.358915  0.266537  0.435185
N2178  N  0.358915  0.266537  0.509259
N2179  N  0.358915  0.266537  0.583333
N2180  N  0.358915  0.266537  0.657407
N2181  N  0.358915  0.266537  0.731481
N2182  N  0.358915  0.266537  0.805556
N2183  N  0.358915  0.266537  0.879630
N2184  N  0.358915  0.266537  0.953704
N2185  N  0.358915  0.355382  0.064815
N2186  N  0.358915  0.355382  0.138889
N2187  N  0.358915  0.355382  0.212963
N2188  N  0.358915  0.355382  0.287037
N2189  N  0.358915  0.355382  0.361111
N2190  N  0.358915  0.355382  0.435185
N2191  N  0.358915  0.355382  0.509259
N2192  N  0.358915  0.355382  0.583333
N2193  N  0.358915  0.355382  0.657407
N2194  N  0.358915  0.355382  0.731481
N2195  N  0.358915  0.355382  0.805556
N2196  N  0.358915  0.355382  0.879630
N2197  N  0.358915  0.355382  0.953704
N2198  N  0.358915  0.444228  0.064815
N2199  N  0.358915  0.444228  0.138889
N2200  N  0.358915  0.444228  0.212963
N2201  N  0.358915  0.444228  0.287037
N2202  N  0.358915  0.444228  0.361111
N2203  N  0.358915  0.444228  0.435185
N2204  N  0.358915  0.444228  0.509259
N2205  N  0.358915  0.444228  0.583333
N2206  N  0.358915  0.444228  0.657407
N2207  N  0.358915  0.444228  0.731481
N2208  N  0.358915  0.444228  0.805556
N2209  N  0.358915  0.444228  0.879630
N2210  N  0.358915  0.444228  0.953704
N2211  N  0.358915  0.533073  0.064815
N2212  N  0.358915  0.533073  0.138889
N2213  N  0.358915  0.533073  0.212963
N2214  N  0.358915  0.533073  0.287037
N2215  N  0.358915  0.533073  0.361111
N2216  N  0.358915  0.533073  0.435185
N2217  N  0.358915  0.533073  0.509259
N2218  N  0.358915  0.533073  0.583333
N2219  N  0.358915  0.533073  0.657407
N2220  N  0.358915  0.533073  0.731481
N2221  N  0.358915  0.533073  0.805556
N2222  N  0.358915  0.533073  0.879630
N2223  N  0.358915  0.533073  0.953704
N2224  N  0.358915  0.621919  0.064815
N2225  N  0.358915  0.621919  0.138889
N2226  N  0.358915  0.621919  0.212963
N2227  N  0.358915  0.621919  0.287037
N2228  N  0.358915  0.621919  0.361111
N2229  N  0.358915  0.621919  0.435185
N2230  N  0.358915  0.621919  0.509259
N2231  N  0.358915  0.621919  0.583333
N2232  N  0.358915  0.621919  0.657407
N2233  N  0.358915  0.621919  0.731481
N2234  N  0.358915  0.621919  0.805556
N2235  N  0.358915  0.621919  0.879630
N2236  N  0.358915  0.621919  0.953704
N2237  N  0.358915  0.710764  0.064815
N2238  N  0.358915  0.710764  0.138889
N2239  N  0.358915  0.710764  0.212963
N2240  N  0.358915  0.710764  0.287037
N2241  N  0.358915  0.710764  0.361111
N2242  N  0.358915  0.710764  0.435185
N2243  N  0.358915  0.710764  0.509259
N2244  N  0.358915  0.710764  0.583333
N2245  N  0.358915  0.710764  0.657407
N2246  N  0.358915  0.710764  0.731481
N2247  N  0.358915  0.710764  0.805556
N2248  N  0.358915  0.710764  0.879630
N2249  N  0.358915  0.710764  0.953704
N2250  N  0.493508 -0.000000  0.064815
N2251  N  0.493508 -0.000000  0.138889
N2252  N  0.493508 -0.000000  0.212963
N2253  N  0.493508 -0.000000  0.287037
N2254  N  0.493508 -0.000000  0.361111
N2255  N  0.493508 -0.000000  0.435185
N2256  N  0.493508 -0.000000  0.509259
N2257  N  0.493508 -0.000000  0.583333
N2258  N  0.493508 -0.000000  0.657407
N2259  N  0.493508 -0.000000  0.731481
N2260  N  0.493508 -0.000000  0.805556
N2261  N  0.493508 -0.000000  0.879630
N2262  N  0.493508 -0.000000  0.953704
N2263  N  0.493508  0.088846  0.064815
N2264  N  0.493508  0.088846  0.138889
N2265  N  0.493508  0.088846  0.212963
N2266  N  0.493508  0.088846  0.287037
N2267  N  0.493508  0.088846  0.361111
N2268  N  0.493508  0.088846  0.435185
N2269  N  0.493508  0.088846  0.509259
N2270  N  0.493508  0.088846  0.583333
N2271  N  0.493508  0.088846  0.657407
N2272  N  0.493508  0.088846  0.731481
N2273  N  0.493508  0.088846  0.805556
N2274  N  0.493508  0.088846  0.879630
N2275  N  0.493508  0.088846  0.953704
N2276  N  0.493508  0.177691  0.064815
N2277  N  0.493508  0.177691  0.138889
N2278  N  0.493508  0.177691  0.212963
N2279  N  0.493508  0.177691  0.287037
N2280  N  0.493508  0.177691  0.361111
N2281  N  0.493508  0.177691  0.435185
N2282  N  0.493508  0.177691  0.509259
N2283  N  0.493508  0.177691  0.583333
N2284  N  0.493508  0.177691  0.657407
N2285  N  0.493508  0.177691  0.731481
N2286  N  0.493508  0.177691  0.805556
N2287  N  0.493508  0.177691  0.879630
N2288  N  0.493508  0.177691  0.953704
N2289  N  0.493508  0.266537  0.064815
N2290  N  0.493508  0.266537  0.138889
N2291  N  0.493508  0.266537  0.212963
N2292  N  0.493508  0.266537  0.287037
N2293  N  0.493508  0.266537  0.361111
N2294  N  0.493508  0.266537  0.435185
N2295  N  0.493508  0.266537  0.509259
N2296  N  0.493508  0.266537  0.583333
N2297  N  0.493508  0.266537  0.657407
N2298  N  0.493508  0.266537  0.731481
N2299  N  0.493508  0.266537  0.805556
N2300  N  0.493508  0.266537  0.879630
N2301  N  0.493508  0.266537  0.953704
N2302  N  0.493508  0.355382  0.064815
N2303  N  0.493508  0.355382  0.138889
N2304  N  0.493508  0.355382  0.212963
N2305  N  0.493508  0.355382  0.287037
N2306  N  0.493508  0.355382  0.361111
N2307  N  0.493508  0.355382  0.435185
N2308  N  0.493508  0.355382  0.509259
N2309  N  0.493508  0.355382  0.583333
N2310  N  0.493508  0.355382  0.657407
N2311  N  0.493508  0.355382  0.731481
N2312  N  0.493508  0.355382  0.805556
N2313  N  0.493508  0.355382  0.879630
N2314  N  0.493508  0.355382  0.953704
N2315  N  0.493508  0.444228  0.064815
N2316  N  0.493508  0.444228  0.138889
N2317  N  0.493508  0.444228  0.212963
N2318  N  0.493508  0.444228  0.287037
N2319  N  0.493508  0.444228  0.361111
N2320  N  0.493508  0.444228  0.435185
N2321  N  0.493508  0.444228  0.509259
N2322  N  0.493508  0.444228  0.583333
N2323  N  0.493508  0.444228  0.657407
N2324  N  0.493508  0.444228  0.731481
N2325  N  0.493508  0.444228  0.805556
N2326  N  0.493508  0.444228  0.879630
N2327  N  0.493508  0.444228  0.953704
N2328  N  0.493508  0.533073  0.064815
N2329  N  0.493508  0.533073  0.138889
N2330  N  0.493508  0.533073  0.212963
N2331  N  0.493508  0.533073  0.287037
N2332  N  0.493508  0.533073  0.361111
N2333  N  0.493508  0.533073  0.435185
N2334  N  0.493508  0.533073  0.509259
N2335  N  0.493508  0.533073  0.583333
N2336  N  0.493508  0.533073  0.657407
N2337  N  0.493508  0.533073  0.731481
N2338  N  0.493508  0.533073  0.805556
N2339  N  0.493508  0.533073  0.879630
N2340  N  0.493508  0.533073  0.953704
N2341  N  0.493508  0.621919  0.064815
N2342  N  0.493508  0.621919  0.138889
N2343  N  0.493508  0.621919  0.212963
N2344  N  0.493508  0.621919  0.287037
N2345  N  0.493508  0.621919  0.361111
N2346  N  0.493508  0.621919  0.435185
N2347  N  0.493508  0.621919  0.509259
N2348  N  0.493508  0.621919  0.583333
N2349  N  0.493508  0.621919  0.657407
N2350  N  0.493508  0.621919  0.731481
N2351  N  0.493508  0.621919  0.805556
N2352  N  0.493508  0.621919  0.879630
N2353  N  0.493508  0.621919  0.953704
N2354  N  0.493508  0.710764  0.064815
N2355  N  0.493508  0.710764  0.138889
N2356  N  0.493508  0.710764  0.212963
N2357  N  0.493508  0.710764  0.287037
N2358  N  0.493508  0.710764  0.361111
N2359  N  0.493508  0.710764  0.435185
N2360  N  0.493508  0.710764  0.509259
N2361  N  0.493508  0.710764  0.583333
N2362  N  0.493508  0.710764  0.657407
N2363  N  0.493508  0.710764  0.731481
N2364  N  0.493508  0.710764  0.805556
N2365  N  0.493508  0.710764  0.879630
N2366  N  0.493508  0.710764  0.953704
N2367  N  0.493508  0.799610  0.064815
N2368  N  0.493508  0.799610  0.138889
N2369  N  0.493508  0.799610  0.212963
N2370  N  0.493508  0.799610  0.287037
N2371  N  0.493508  0.799610  0.361111
N2372  N  0.493508  0.799610  0.435185
N2373  N  0.493508  0.799610  0.509259
N2374  N  0.493508  0.799610  0.583333
N2375  N  0.493508  0.799610  0.657407
N2376  N  0.493508  0.799610  0.731481
N2377  N  0.493508  0.799610  0.805556
N2378  N  0.493508  0.799610  0.879630
N2379  N  0.493508  0.799610  0.953704
N2380  N  0.493508  0.888455  0.064815
N2381  N  0.493508  0.888455  0.138889
N2382  N  0.493508  0.888455  0.212963
N2383  N  0.493508  0.888455  0.287037
N2384  N  0.493508  0.888455  0.361111
N2385  N  0.493508  0.888455  0.435185
N2386  N  0.493508  0.888455  0.509259
N2387  N  0.493508  0.888455  0.583333
N2388  N  0.493508  0.888455  0.657407
N2389  N  0.493508  0.888455  0.731481
N2390  N  0.493508  0.888455  0.805556
N2391  N  0.493508  0.888455  0.879630
N2392  N  0.493508  0.888455  0.953704
N2393  N  0.628101 -0.000000  0.064815
N2394  N  0.628101 -0.000000  0.138889
N2395  N  0.628101 -0.000000  0.212963
N2396  N  0.628101 -0.000000  0.287037
N2397  N  0.628101 -0.000000  0.361111
N2398  N  0.628101 -0.000000  0.435185
N2399  N  0.628101 -0.000000  0.509259
N2400  N  0.628101 -0.000000  0.583333
N2401  N  0.628101 -0.000000  0.657407
N2402  N  0.628101 -0.000000  0.731481
N2403  N  0.628101 -0.000000  0.805556
N2404  N  0.628101 -0.000000  0.879630
N2405  N  0.628101 -0.000000  0.953704
N2406  N  0.628101  0.088846  0.064815
N2407  N  0.628101  0.088846  0.138889
N2408  N  0.628101  0.088846  0.212963
N2409  N  0.628101  0.088846  0.287037
N2410  N  0.628101  0.088846  0.361111
N2411  N  0.628101  0.088846  0.435185
N2412  N  0.628101  0.088846  0.509259
N2413  N  0.628101  0.088846  0.583333
N2414  N  0.628101  0.088846  0.657407
N2415  N  0.628101  0.088846  0.731481
N2416  N  0.628101  0.088846  0.805556
N2417  N  0.628101  0.088846  0.879630
N2418  N  0.628101  0.088846  0.953704
N2419  N  0.628101  0.177691  0.064815
N2420  N  0.628101  0.177691  0.138889
N2421  N  0.628101  0.177691  0.212963
N2422  N  0.628101  0.177691  0.287037
N2423  N  0.628101  0.177691  0.361111
N2424  N  0.628101  0.177691  0.435185
N2425  N  0.628101  0.177691  0.509259
N2426  N  0.628101  0.177691  0.583333
N2427  N  0.628101  0.177691  0.657407
N2428  N  0.628101  0.177691  0.731481
N2429  N  0.628101  0.177691  0.805556
N2430  N  0.628101  0.177691  0.879630
N2431  N  0.628101  0.177691  0.953704
N2432  N  0.628101  0.266537  0.064815
N2433  N  0.628101  0.266537  0.138889
N2434  N  0.628101  0.266537  0.212963
N2435  N  0.628101  0.266537  0.287037
N2436  N  0.628101  0.266537  0.361111
N2437  N  0.628101  0.266537  0.435185
N2438  N  0.628101  0.266537  0.509259
N2439  N  0.628101  0.266537  0.583333
N2440  N  0.628101  0.266537  0.657407
N2441  N  0.628101  0.266537  0.731481
N2442  N  0.628101  0.266537  0.805556
N2443  N  0.628101  0.266537  0.879630
N2444  N  0.628101  0.266537  0.953704
N2445  N  0.628101  0.355382  0.064815
N2446  N  0.628101  0.355382  0.138889
N2447  N  0.628101  0.355382  0.212963
N2448  N  0.628101  0.355382  0.287037
N2449  N  0.628101  0.355382  0.361111
N2450  N  0.628101  0.355382  0.435185
N2451  N  0.628101  0.355382  0.509259
N2452  N  0.628101  0.355382  0.583333
N2453  N  0.628101  0.355382  0.657407
N2454  N  0.628101  0.355382  0.731481
N2455  N  0.628101  0.355382  0.805556
N2456  N  0.628101  0.355382  0.879630
N2457  N  0.628101  0.355382  0.953704
N2458  N  0.628101  0.444228  0.064815
N2459  N  0.628101  0.444228  0.138889
N2460  N  0.628101  0.444228  0.212963
N2461  N  0.628101  0.444228  0.287037
N2462  N  0.628101  0.444228  0.361111
N2463  N  0.628101  0.444228  0.435185
N2464  N  0.628101  0.444228  0.509259
N2465  N  0.628101  0.444228  0.583333
N2466  N  0.628101  0.444228  0.657407
N2467  N  0.628101  0.444228  0.731481
N2468  N  0.628101  0.444228  0.805556
N2469  N  0.628101  0.444228  0.879630
N2470  N  0.628101  0.444228  0.953704
N2471  N  0.628101  0.533073  0.064815
N2472  N  0.628101  0.533073  0.138889
N2473  N  0.628101  0.533073  0.212963
N2474  N  0.628101  0.533073  0.287037
N2475  N  0.628101  0.533073  0.361111
N2476  N  0.628101  0.533073  0.435185
N2477  N  0.628101  0.533073  0.509259
N2478  N  0.628101  0.533073  0.583333
N2479  N  0.628101  0.533073  0.657407
N2480  N  0.628101  0.533073  0.731481
N2481  N  0.628101  0.533073  0.805556
N2482  N  0.628101  0.533073  0.879630
N2483  N  0.628101  0.533073  0.953704
N2484  N  0.628101  0.621919  0.064815
N2485  N  0.628101  0.621919  0.138889
N2486  N  0.628101  0.621919  0.212963
N2487  N  0.628101  0.621919  0.287037
N2488  N  0.628101  0.621919  0.361111
N2489  N  0.628101  0.621919  0.435185
N2490  N  0.628101  0.621919  0.509259
N2491  N  0.628101  0.621919  0.583333
N2492  N  0.628101  0.621919  0.657407
N2493  N  0.628101  0.621919  0.731481
N2494  N  0.628101  0.621919  0.805556
N2495  N  0.628101  0.621919  0.879630
N2496  N  0.628101  0.621919  0.953704
N2497  N  0.628101  0.710764  0.064815
N2498  N  0.628101  0.710764  0.138889
N2499  N  0.628101  0.710764  0.212963
N2500  N  0.628101  0.710764  0.287037
N2501  N  0.628101  0.710764  0.361111
N2502  N  0.628101  0.710764  0.435185
N2503  N  0.628101  0.710764  0.509259
N2504  N  0.628101  0.710764  0.583333
N2505  N  0.628101  0.710764  0.657407
N2506  N  0.628101  0.710764  0.731481
N2507  N  0.628101  0.710764  0.805556
N2508  N  0.628101  0.710764  0.879630
N2509  N  0.628101  0.710764  0.953704
N2510  N  0.628101  0.799610  0.064815
N2511  N  0.628101  0.799610  0.138889
N2512  N  0.628101  0.799610  0.212963
N2513  N  0.628101  0.799610  0.287037
N2514  N  0.628101  0.799610  0.361111
N2515  N  0.628101  0.799610  0.435185
N2516  N  0.628101  0.799610  0.509259
N2517  N  0.628101  0.799610  0.583333
N2518  N  0.628101  0.799610  0.657407
N2519  N  0.628101  0.799610  0.731481
N2520  N  0.628101  0.799610  0.805556
N2521  N  0.628101  0.799610  0.879630
N2522  N  0.628101  0.799610  0.953704
N2523  N  0.628101  0.888455  0.064815
N2524  N  0.628101  0.888455  0.138889
N2525  N  0.628101  0.888455  0.212963
N2526  N  0.628101  0.888455  0.287037
N2527  N  0.628101  0.888455  0.361111
N2528  N  0.628101  0.888455  0.435185
N2529  N  0.628101  0.888455  0.509259
N2530  N  0.628101  0.888455  0.583333
N2531  N  0.628101  0.888455  0.657407
N2532  N  0.628101  0.888455  0.731481
N2533  N  0.628101  0.888455  0.805556
N2534  N  0.628101  0.888455  0.879630
N2535  N  0.628101  0.888455  0.953704
N2536  N  0.762694 -0.000000  0.064815
N2537  N  0.762694 -0.000000  0.138889
N2538  N  0.762694 -0.000000  0.212963
N2539  N  0.762694 -0.000000  0.287037
N2540  N  0.762694 -0.000000  0.361111
N2541  N  0.762694 -0.000000  0.435185
N2542  N  0.762694 -0.000000  0.509259
N2543  N  0.762694 -0.000000  0.583333
N2544  N  0.762694 -0.000000  0.657407
N2545  N  0.762694 -0.000000  0.731481
N2546  N  0.762694 -0.000000  0.805556
N2547  N  0.762694 -0.000000  0.879630
N2548  N  0.762694 -0.000000  0.953704
N2549  N  0.762694  0.088846  0.064815
N2550  N  0.762694  0.088846  0.138889
N2551  N  0.762694  0.088846  0.212963
N2552  N  0.762694  0.088846  0.287037
N2553  N  0.762694  0.088846  0.361111
N2554  N  0.762694  0.088846  0.435185
N2555  N  0.762694  0.088846  0.509259
N2556  N  0.762694  0.088846  0.583333
N2557  N  0.762694  0.088846  0.657407
N2558  N  0.762694  0.088846  0.731481
N2559  N  0.762694  0.088846  0.805556
N2560  N  0.762694  0.088846  0.879630
N2561  N  0.762694  0.088846  0.953704
N2562  N  0.762694  0.177691  0.064815
N2563  N  0.762694  0.177691  0.138889
N2564  N  0.762694  0.177691  0.212963
N2565  N  0.762694  0.177691  0.287037
N2566  N  0.762694  0.177691  0.361111
N2567  N  0.762694  0.177691  0.435185
N2568  N  0.762694  0.177691  0.509259
N2569  N  0.762694  0.177691  0.583333
N2570  N  0.762694  0.177691  0.657407
N2571  N  0.762694  0.177691  0.731481
N2572  N  0.762694  0.177691  0.805556
N2573  N  0.762694  0.177691  0.879630
N2574  N  0.762694  0.177691  0.953704
N2575  N  0.762694  0.266537  0.064815
N2576  N  0.762694  0.266537  0.138889
N2577  N  0.762694  0.266537  0.212963
N2578  N  0.762694  0.266537  0.287037
N2579  N  0.762694  0.266537  0.361111
N2580  N  0.762694  0.266537  0.435185
N2581  N  0.762694  0.266537  0.509259
N2582  N  0.762694  0.266537  0.583333
N2583  N  0.762694  0.266537  0.657407
N2584  N  0.762694  0.266537  0.731481
N2585  N  0.762694  0.266537  0.805556
N2586  N  0.762694  0.266537  0.879630
N2587  N  0.762694  0.266537  0.953704
N2588  N  0.762694  0.355382  0.064815
N2589  N  0.762694  0.355382  0.138889
N2590  N  0.762694  0.355382  0.212963
N2591  N  0.762694  0.355382  0.287037
N2592  N  0.762694  0.355382  0.361111
N2593  N  0.762694  0.355382  0.435185
N2594  N  0.762694  0.355382  0.509259
N2595  N  0.762694  0.355382  0.583333
N2596  N  0.762694  0.355382  0.657407
N2597  N  0.762694  0.355382  0.731481
N2598  N  0.762694  0.355382  0.805556
N2599  N  0.762694  0.355382  0.879630
N2600  N  0.762694  0.355382  0.953704
N2601  N  0.762694  0.444228  0.064815
N2602  N  0.762694  0.444228  0.138889
N2603  N  0.762694  0.444228  0.212963
N2604  N  0.762694  0.444228  0.287037
N2605  N  0.762694  0.444228  0.361111
N2606  N  0.762694  0.444228  0.435185
N2607  N  0.762694  0.444228  0.509259
N2608  N  0.762694  0.444228  0.583333
N2609  N  0.762694  0.444228  0.657407
N2610  N  0.762694  0.444228  0.731481
N2611  N  0.762694  0.444228  0.805556
N2612  N  0.762694  0.444228  0.879630
N2613  N  0.762694  0.444228  0.953704
N2614  N  0.762694  0.533073  0.064815
N2615  N  0.762694  0.533073  0.138889
N2616  N  0.762694  0.533073  0.212963
N2617  N  0.762694  0.533073  0.287037
N2618  N  0.762694  0.533073  0.361111
N2619  N  0.762694  0.533073  0.435185
N2620  N  0.762694  0.533073  0.509259
N2621  N  0.762694  0.533073  0.583333
N2622  N  0.762694  0.533073  0.657407
N2623  N  0.762694  0.533073  0.731481
N2624  N  0.762694  0.533073  0.805556
N2625  N  0.762694  0.533073  0.879630
N2626  N  0.762694  0.533073  0.953704
N2627  N  0.762694  0.621919  0.064815
N2628  N  0.762694  0.621919  0.138889
N2629  N  0.762694  0.621919  0.212963
N2630  N  0.762694  0.621919  0.287037
N2631  N  0.762694  0.621919  0.361111
N2632  N  0.762694  0.621919  0.435185
N2633  N  0.762694  0.621919  0.509259
N2634  N  0.762694  0.621919  0.583333
N2635  N  0.762694  0.621919  0.657407
N2636  N  0.762694  0.621919  0.731481
N2637  N  0.762694  0.621919  0.805556
N2638  N  0.762694  0.621919  0.879630
N2639  N  0.762694  0.621919  0.953704
N2640  N  0.762694  0.710764  0.064815
N2641  N  0.762694  0.710764  0.138889
N2642  N  0.762694  0.710764  0.212963
N2643  N  0.762694  0.710764  0.287037
N2644  N  0.762694  0.710764  0.361111
N2645  N  0.762694  0.710764  0.435185
N2646  N  0.762694  0.710764  0.509259
N2647  N  0.762694  0.710764  0.583333
N2648  N  0.762694  0.710764  0.657407
N2649  N  0.762694  0.710764  0.731481
N2650  N  0.762694  0.710764  0.805556
N2651  N  0.762694  0.710764  0.879630
N2652  N  0.762694  0.710764  0.953704
N2653  N  0.762694  0.799610  0.064815
N2654  N  0.762694  0.799610  0.138889
N2655  N  0.762694  0.799610  0.212963
N2656  N  0.762694  0.799610  0.287037
N2657  N  0.762694  0.799610  0.361111
N2658  N  0.762694  0.799610  0.435185
N2659  N  0.762694  0.799610  0.509259
N2660  N  0.762694  0.799610  0.583333
N2661  N  0.762694  0.799610  0.657407
N2662  N  0.762694  0.799610  0.731481
N2663  N  0.762694  0.799610  0.805556
N2664  N  0.762694  0.799610  0.879630
N2665  N  0.762694  0.799610  0.953704
N2666  N  0.762694  0.888455  0.064815
N2667  N  0.762694  0.888455  0.138889
N2668  N  0.762694  0.888455  0.212963
N2669  N  0.762694  0.888455  0.287037
N2670  N  0.762694  0.888455  0.361111
N2671  N  0.762694  0.888455  0.435185
N2672  N  0.762694  0.888455  0.509259
N2673  N  0.762694  0.888455  0.583333
N2674  N  0.762694  0.888455  0.657407
N2675  N  0.762694  0.888455  0.731481
N2676  N  0.762694  0.888455  0.805556
N2677  N  0.762694  0.888455  0.879630
N2678  N  0.762694  0.888455  0.953704
N2679  N  0.897287 -0.000000  0.064815
N2680  N  0.897287 -0.000000  0.138889
N2681  N  0.897287 -0.000000  0.212963
N2682  N  0.897287 -0.000000  0.287037
N2683  N  0.897287 -0.000000  0.361111
N2684  N  0.897287 -0.000000  0.435185
N2685  N  0.897287 -0.000000  0.509259
N2686  N  0.897287 -0.000000  0.583333
N2687  N  0.897287 -0.000000  0.657407
N2688  N  0.897287 -0.000000  0.731481
N2689  N  0.897287 -0.000000  0.805556
N2690  N  0.897287 -0.000000  0.879630
N2691  N  0.897287 -0.000000  0.953704
N2692  N  0.897287  0.088846  0.064815
N2693  N  0.897287  0.088846  0.138889
N2694  N  0.897287  0.088846  0.212963
N2695  N  0.897287  0.088846  0.287037
N2696  N  0.897287  0.088846  0.361111
N2697  N  0.897287  0.088846  0.435185
N2698  N  0.897287  0.088846  0.509259
N2699  N  0.897287  0.088846  0.583333
N2700  N  0.897287  0.088846  0.657407
N2701  N  0.897287  0.088846  0.731481
N2702  N  0.897287  0.088846  0.805556
N2703  N  0.897287  0.088846  0.879630
N2704  N  0.897287  0.088846  0.953704
N2705  N  0.897287  0.177691  0.064815
N2706  N  0.897287  0.177691  0.138889
N2707  N  0.897287  0.177691  0.212963
N2708  N  0.897287  0.177691  0.287037
N2709  N  0.897287  0.177691  0.361111
N2710  N  0.897287  0.177691  0.435185
N2711  N  0.897287  0.177691  0.509259
N2712  N  0.897287  0.177691  0.583333
N2713  N  0.897287  0.177691  0.657407
N2714  N  0.897287  0.177691  0.731481
N2715  N  0.897287  0.177691  0.805556
N2716  N  0.897287  0.177691  0.879630
N2717  N  0.897287  0.177691  0.953704
N2718  N  0.897287  0.266537  0.064815
N2719  N  0.897287  0.266537  0.138889
N2720  N  0.897287  0.266537  0.212963
N2721  N  0.897287  0.266537  0.287037
N2722  N  0.897287  0.266537  0.361111
N2723  N  0.897287  0.266537  0.435185
N2724  N  0.897287  0.266537  0.509259
N2725  N  0.897287  0.266537  0.583333
N2726  N  0.897287  0.266537  0.657407
N2727  N  0.897287  0.266537  0.731481
N2728  N  0.897287  0.266537  0.805556
N2729  N  0.897287  0.266537  0.879630
N2730  N  0.897287  0.266537  0.953704
N2731  N  0.897287  0.355382  0.064815
N2732  N  0.897287  0.355382  0.138889
N2733  N  0.897287  0.355382  0.212963
N2734  N  0.897287  0.355382  0.287037
N2735  N  0.897287  0.355382  0.361111
N2736  N  0.897287  0.355382  0.435185
N2737  N  0.897287  0.355382  0.509259
N2738  N  0.897287  0.355382  0.583333
N2739  N  0.897287  0.355382  0.657407
N2740  N  0.897287  0.355382  0.731481
N2741  N  0.897287  0.355382  0.805556
N2742  N  0.897287  0.355382  0.879630
N2743  N  0.897287  0.355382  0.953704
N2744  N  0.897287  0.444228  0.064815
N2745  N  0.897287  0.444228  0.138889
N2746  N  0.897287  0.444228  0.212963
N2747  N  0.897287  0.444228  0.287037
N2748  N  0.897287  0.444228  0.361111
N2749  N  0.897287  0.444228  0.435185
N2750  N  0.897287  0.444228  0.509259
N2751  N  0.897287  0.444228  0.583333
N2752  N  0.897287  0.444228  0.657407
N2753  N  0.897287  0.444228  0.731481
N2754  N  0.897287  0.444228  0.805556
N2755  N  0.897287  0.444228  0.879630
N2756  N  0.897287  0.444228  0.953704
N2757  N  0.897287  0.533073  0.064815
N2758  N  0.897287  0.533073  0.138889
N2759  N  0.897287  0.533073  0.212963
N2760  N  0.897287  0.533073  0.287037
N2761  N  0.897287  0.533073  0.361111
N2762  N  0.897287  0.533073  0.435185
N2763  N  0.897287  0.533073  0.509259
N2764  N  0.897287  0.533073  0.583333
N2765  N  0.897287  0.533073  0.657407
N2766  N  0.897287  0.533073  0.731481
N2767  N  0.897287  0.533073  0.805556
N2768  N  0.897287  0.533073  0.879630
N2769  N  0.897287  0.533073  0.953704
N2770  N  0.897287  0.621919  0.064815
N2771  N  0.897287  0.621919  0.138889
N2772  N  0.897287  0.621919  0.212963
N2773  N  0.897287  0.621919  0.287037
N2774  N  0.897287  0.621919  0.361111
N2775  N  0.897287  0.621919  0.435185
N2776  N  0.897287  0.621919  0.509259
N2777  N  0.897287  0.621919  0.583333
N2778  N  0.897287  0.621919  0.657407
N2779  N  0.897287  0.621919  0.731481
N2780  N  0.897287  0.621919  0.805556
N2781  N  0.897287  0.621919  0.879630
N2782  N  0.897287  0.621919  0.953704
N2783  N  0.897287  0.710764  0.064815
N2784  N  0.897287  0.710764  0.138889
N2785  N  0.897287  0.710764  0.212963
N2786  N  0.897287  0.710764  0.287037
N2787  N  0.897287  0.710764  0.361111
N2788  N  0.897287  0.710764  0.435185
N2789  N  0.897287  0.710764  0.509259
N2790  N  0.897287  0.710764  0.583333
N2791  N  0.897287  0.710764  0.657407
N2792  N  0.897287  0.710764  0.731481
N2793  N  0.897287  0.710764  0.805556
N2794  N  0.897287  0.710764  0.879630
N2795  N  0.897287  0.710764  0.953704
N2796  N  0.897287  0.799610  0.064815
N2797  N  0.897287  0.799610  0.138889
N2798  N  0.897287  0.799610  0.212963
N2799  N  0.897287  0.799610  0.287037
N2800  N  0.897287  0.799610  0.361111
N2801  N  0.897287  0.799610  0.435185
N2802  N  0.897287  0.799610  0.509259
N2803  N  0.897287  0.799610  0.583333
N2804  N  0.897287  0.799610  0.657407
N2805  N  0.897287  0.799610  0.731481
N2806  N  0.897287  0.799610  0.805556
N2807  N  0.897287  0.799610  0.879630
N2808  N  0.897287  0.799610  0.953704
N2809  N  0.897287  0.888455  0.064815
N2810  N  0.897287  0.888455  0.138889
N2811  N  0.897287  0.888455  0.212963
N2812  N  0.897287  0.888455  0.287037
N2813  N  0.897287  0.888455  0.361111
N2814  N  0.897287  0.888455  0.435185
N2815  N  0.897287  0.888455  0.509259
N2816  N  0.897287  0.888455  0.583333
N2817  N  0.897287  0.888455  0.657407
N2818  N  0.897287  0.888455  0.731481
N2819  N  0.897287  0.888455  0.805556
N2820  N  0.897287  0.888455  0.879630
N2821  N  0.897287  0.888455  0.953704
N2822  N  1.031880  0.266537  0.064815
N2823  N  1.031880  0.266537  0.138889
N2824  N  1.031880  0.266537  0.212963
N2825  N  1.031880  0.266537  0.287037
N2826  N  1.031880  0.266537  0.361111
N2827  N  1.031880  0.266537  0.435185
N2828  N  1.031880  0.266537  0.509259
N2829  N  1.031880  0.266537  0.583333
N2830  N  1.031880  0.266537  0.657407
N2831  N  1.031880  0.266537  0.731481
N2832  N  1.031880  0.266537  0.805556
N2833  N  1.031880  0.266537  0.879630
N2834  N  1.031880  0.266537  0.953704
N2835  N  1.031880  0.355382  0.064815
N2836  N  1.031880  0.355382  0.138889
N2837  N  1.031880  0.355382  0.212963
N2838  N  1.031880  0.355382  0.287037
N2839  N  1.031880  0.355382  0.361111
N2840  N  1.031880  0.355382  0.435185
N2841  N  1.031880  0.355382  0.509259
N2842  N  1.031880  0.355382  0.583333
N2843  N  1.031880  0.355382  0.657407
N2844  N  1.031880  0.355382  0.731481
N2845  N  1.031880  0.355382  0.805556
N2846  N  1.031880  0.355382  0.879630
N2847  N  1.031880  0.355382  0.953704
N2848  N  1.031880  0.444228  0.064815
N2849  N  1.031880  0.444228  0.138889
N2850  N  1.031880  0.444228  0.212963
N2851  N  1.031880  0.444228  0.287037
N2852  N  1.031880  0.444228  0.361111
N2853  N  1.031880  0.444228  0.435185
N2854  N  1.031880  0.444228  0.509259
N2855  N  1.031880  0.444228  0.583333
N2856  N  1.031880  0.444228  0.657407
N2857  N  1.031880  0.444228  0.731481
N2858  N  1.031880  0.444228  0.805556
N2859  N  1.031880  0.444228  0.879630
N2860  N  1.031880  0.444228  0.953704
N2861  N  1.031880  0.533073  0.064815
N2862  N  1.031880  0.533073  0.138889
N2863  N  1.031880  0.533073  0.212963
N2864  N  1.031880  0.533073  0.287037
N2865  N  1.031880  0.533073  0.361111
N2866  N  1.031880  0.533073  0.435185
N2867  N  1.031880  0.533073  0.509259
N2868  N  1.031880  0.533073  0.583333
N2869  N  1.031880  0.533073  0.657407
N2870  N  1.031880  0.533073  0.731481
N2871  N  1.031880  0.533073  0.805556
N2872  N  1.031880  0.533073  0.879630
N2873  N  1.031880  0.533073  0.953704
N2874  N  1.031880  0.621919  0.064815
N2875  N  1.031880  0.621919  0.138889
N2876  N  1.031880  0.621919  0.212963
N2877  N  1.031880  0.621919  0.287037
N2878  N  1.031880  0.621919  0.361111
N2879  N  1.031880  0.621919  0.435185
N2880  N  1.031880  0.621919  0.509259
N2881  N  1.031880  0.621919  0.583333
N2882  N  1.031880  0.621919  0.657407
N2883  N  1.031880  0.621919  0.731481
N2884  N  1.031880  0.621919  0.805556
N2885  N  1.031880  0.621919  0.879630
N2886  N  1.031880  0.621919  0.953704
N2887  N  0.224322  0.444228 -0.009259
N2888  N  0.358915  0.177691 -0.009259
N2889  N  0.291618  0.310959 -0.009259
N2890  N  0.358915  0.266537 -0.009259
N2891  N  0.314050  0.266537  0.990741
N2892  N  0.291618  0.399805 -0.009259
N2893  N  0.358915  0.355382 -0.009259
N2894  N  0.314050  0.355382  0.990741
N2895  N  0.291618  0.488650 -0.009259
N2896  N  0.358915  0.444228 -0.009259
N2897  N  0.314050  0.444228  0.990741
N2898  N  0.291618  0.577496 -0.009259
N2899  N  0.358915  0.533073 -0.009259
N2900  N  0.314050  0.533073  0.990741
N2901  N  0.358915  0.621919 -0.009259
N2902  N  0.314050  0.621919  0.990741
N2903  N  0.358915  0.710764 -0.009259
N2904  N  0.426211  0.044423 -0.009259
N2905  N  0.493508  0.000000 -0.009259
N2906  N  0.448643 -0.000000  0.990741
N2907  N  0.426211  0.133268 -0.009259
N2908  N  0.493508  0.088846 -0.009259
N2909  N  0.448643  0.088846  0.990741
N2910  N  0.426211  0.222114 -0.009259
N2911  N  0.493508  0.177691 -0.009259
N2912  N  0.448643  0.177691  0.990741
N2913  N  0.426211  0.310959 -0.009259
N2914  N  0.493508  0.266537 -0.009259
N2915  N  0.448643  0.266537  0.990741
N2916  N  0.426211  0.399805 -0.009259
N2917  N  0.493508  0.355382 -0.009259
N2918  N  0.448643  0.355382  0.990741
N2919  N  0.426211  0.488650 -0.009259
N2920  N  0.493508  0.444228 -0.009259
N2921  N  0.448643  0.444228  0.990741
N2922  N  0.426211  0.577496 -0.009259
N2923  N  0.493508  0.533073 -0.009259
N2924  N  0.448643  0.533073  0.990741
N2925  N  0.426211  0.666341 -0.009259
N2926  N  0.493508  0.621919 -0.009259
N2927  N  0.448643  0.621919  0.990741
N2928  N  0.426211  0.755187 -0.009259
N2929  N  0.493508  0.710764 -0.009259
N2930  N  0.448643  0.710764  0.990741
N2931  N  0.426211  0.844032 -0.009259
N2932  N  0.493508  0.799610 -0.009259
N2933  N  0.448643  0.799610  0.990741
N2934  N  0.493508  0.888455 -0.009259
N2935  N  0.448643  0.888455  0.990741
N2936  N  0.560804  0.044423 -0.009259
N2937  N  0.628101  0.000000 -0.009259
N2938  N  0.583236 -0.000000  0.990741
N2939  N  0.560804  0.133268 -0.009259
N2940  N  0.628101  0.088846 -0.009259
N2941  N  0.583236  0.088846  0.990741
N2942  N  0.560804  0.222114 -0.009259
N2943  N  0.628101  0.177691 -0.009259
N2944  N  0.583236  0.177691  0.990741
N2945  N  0.560804  0.310959 -0.009259
N2946  N  0.628101  0.266537 -0.009259
N2947  N  0.583236  0.266537  0.990741
N2948  N  0.560804  0.399805 -0.009259
N2949  N  0.628101  0.355382 -0.009259
N2950  N  0.583236  0.355382  0.990741
N2951  N  0.560804  0.488650 -0.009259
N2952  N  0.628101  0.444228 -0.009259
N2953  N  0.583236  0.444228  0.990741
N2954  N  0.560804  0.577496 -0.009259
N2955  N  0.628101  0.533073 -0.009259
N2956  N  0.583236  0.533073  0.990741
N2957  N  0.560804  0.666341 -0.009259
N2958  N  0.628101  0.621919 -0.009259
N2959  N  0.583236  0.621919  0.990741
N2960  N  0.560804  0.755187 -0.009259
N2961  N  0.628101  0.710764 -0.009259
N2962  N  0.583236  0.710764  0.990741
N2963  N  0.560804  0.844032 -0.009259
N2964  N  0.628101  0.799610 -0.009259
N2965  N  0.583236  0.799610  0.990741
N2966  N  0.628101  0.888455 -0.009259
N2967  N  0.583236  0.888455  0.990741
N2968  N  0.695397  0.044423 -0.009259
N2969  N  0.762694  0.000000 -0.009259
N2970  N  0.717829 -0.000000  0.990741
N2971  N  0.695397  0.133268 -0.009259
N2972  N  0.762694  0.088846 -0.009259
N2973  N  0.717829  0.088846  0.990741
N2974  N  0.695397  0.222114 -0.009259
N2975  N  0.762694  0.177691 -0.009259
N2976  N  0.717829  0.177691  0.990741
N2977  N  0.695397  0.310959 -0.009259
N2978  N  0.762694  0.266537 -0.009259
N2979  N  0.717829  0.266537  0.990741
N2980  N  0.695397  0.399805 -0.009259
N2981  N  0.762694  0.355382 -0.009259
N2982  N  0.717829  0.355382  0.990741
N2983  N  0.695397  0.488650 -0.009259
N2984  N  0.762694  0.444228 -0.009259
N2985  N  0.717829  0.444228  0.990741
N2986  N  0.695397  0.577496 -0.009259
N2987  N  0.762694  0.533073 -0.009259
N2988  N  0.717829  0.533073  0.990741
N2989  N  0.695397  0.666341 -0.009259
N2990  N  0.762694  0.621919 -0.009259
N2991  N  0.717829  0.621919  0.990741
N2992  N  0.695397  0.755187 -0.009259
N2993  N  0.762694  0.710764 -0.009259
N2994  N  0.717829  0.710764  0.990741
N2995  N  0.695397  0.844032 -0.009259
N2996  N  0.762694  0.799610 -0.009259
N2997  N  0.717829  0.799610  0.990741
N2998  N  0.762694  0.888455 -0.009259
N2999  N  0.717829  0.888455  0.990741
N3000  N  0.829990  0.044423 -0.009259
N3001  N  0.897287  0.000000 -0.009259
N3002  N  0.852422 -0.000000  0.990741
N3003  N  0.829990  0.133268 -0.009259
N3004  N  0.897287  0.088846 -0.009259
N3005  N  0.852422  0.088846  0.990741
N3006  N  0.829990  0.222114 -0.009259
N3007  N  0.897287  0.177691 -0.009259
N3008  N  0.852422  0.177691  0.990741
N3009  N  0.829990  0.310959 -0.009259
N3010  N  0.897287  0.266537 -0.009259
N3011  N  0.852422  0.266537  0.990741
N3012  N  0.829990  0.399805 -0.009259
N3013  N  0.897287  0.355382 -0.009259
N3014  N  0.852422  0.355382  0.990741
N3015  N  0.829990  0.488650 -0.009259
N3016  N  0.897287  0.444228 -0.009259
N3017  N  0.852422  0.444228  0.990741
N3018  N  0.829990  0.577496 -0.009259
N3019  N  0.897287  0.533073 -0.009259
N3020  N  0.852422  0.533073  0.990741
N3021  N  0.829990  0.666341 -0.009259
N3022  N  0.897287  0.621919 -0.009259
N3023  N  0.852422  0.621919  0.990741
N3024  N  0.829990  0.755187 -0.009259
N3025  N  0.897287  0.710764 -0.009259
N3026  N  0.852422  0.710764  0.990741
N3027  N  0.829990  0.844032 -0.009259
N3028  N  0.897287  0.799610 -0.009259
N3029  N  0.852422  0.799610  0.990741
N3030  N  0.897287  0.888455 -0.009259
N3031  N  0.852422  0.888455  0.990741
N3032  N  0.964583  0.133268 -0.009259
N3033  N  0.964583  0.222114 -0.009259
N3034  N  0.987016  0.177691  0.990741
N3035  N  0.964583  0.310959 -0.009259
N3036  N  1.031880  0.266537 -0.009259
N3037  N  0.987016  0.266537  0.990741
N3038  N  0.964583  0.399805 -0.009259
N3039  N  1.031880  0.355382 -0.009259
N3040  N  0.987016  0.355382  0.990741
N3041  N  0.964583  0.488650 -0.009259
N3042  N  1.031880  0.444228 -0.009259
N3043  N  0.987016  0.444228  0.990741
N3044  N  0.964583  0.577496 -0.009259
N3045  N  1.031880  0.533073 -0.009259
N3046  N  0.987016  0.533073  0.990741
N3047  N  0.964583  0.666341 -0.009259
N3048  N  1.031880  0.621919 -0.009259
N3049  N  0.987016  0.621919  0.990741
N3050  N  0.964583  0.755187 -0.009259
N3051  N  0.987016  0.710764  0.990741
N3052  N  1.099176  0.399805 -0.009259
N3053  N  1.099176  0.488650 -0.009259
N3054  N  1.121609  0.444228  0.990741
N3055  N  0.246754  0.399805  0.990741
N3056  N  0.246754  0.488650  0.990741
N3057  N  0.381347  0.133268  0.990741
N3058  N  0.381347  0.222114  0.990741
N3059  N  0.381347  0.310959  0.990741
N3060  N  0.381347  0.399805  0.990741
N3061  N  0.381347  0.488650  0.990741
N3062  N  0.381347  0.577496  0.990741
N3063  N  0.381347  0.666341  0.990741
N3064  N  0.381347  0.755187  0.990741
N3065  N  0.515940  0.044423  0.990741
N3066  N  0.515940  0.133268  0.990741
N3067  N  0.515940  0.222114  0.990741
N3068  N  0.515940  0.310959  0.990741
N3069  N  0.515940  0.399805  0.990741
N3070  N  0.515940  0.488650  0.990741
N3071  N  0.515940  0.577496  0.990741
N3072  N  0.515940  0.666341  0.990741
N3073  N  0.515940  0.755187  0.990741
N3074  N  0.515940  0.844032  0.990741
N3075  N  0.650533  0.044423  0.990741
N3076  N  0.650533  0.133268  0.990741
N3077  N  0.650533  0.222114  0.990741
N3078  N  0.650533  0.310959  0.990741
N3079  N  0.650533  0.399805  0.990741
N3080  N  0.650533  0.488650  0.990741
N3081  N  0.650533  0.577496  0.990741
N3082  N  0.650533  0.666341  0.990741
N3083  N  0.650533  0.755187  0.990741
N3084  N  0.650533  0.844032  0.990741
N3085  N  0.785126  0.044423  0.990741
N3086  N  0.785126  0.133268  0.990741
N3087  N  0.785126  0.222114  0.990741
N3088  N  0.785126  0.310959  0.990741
N3089  N  0.785126  0.399805  0.990741
N3090  N  0.785126  0.488650  0.990741
N3091  N  0.785126  0.577496  0.990741
N3092  N  0.785126  0.666341  0.990741
N3093  N  0.785126  0.755187  0.990741
N3094  N  0.785126  0.844032  0.990741
N3095  N  0.919719  0.044423  0.990741
N3096  N  0.919719  0.133268  0.990741
N3097  N  0.919719  0.222114  0.990741
N3098  N  0.919719  0.310959  0.990741
N3099  N  0.919719  0.399805  0.990741
N3100  N  0.919719  0.488650  0.990741
N3101  N  0.919719  0.577496  0.990741
N3102  N  0.919719  0.666341  0.990741
N3103  N  0.919719  0.755187  0.990741
N3104  N  0.919719  0.844032  0.990741
N3105  N  1.054312  0.310959  0.990741
N3106  N  1.054312  0.399805  0.990741
N3107  N  1.054312  0.488650  0.990741
N3108  N  1.054312  0.577496  0.990741
