_audit_creation_date      'Dec. 30, 2024'
_audit_creation_method    'Draft CIF file generated with Atomsk'
 
_chemical_name_common             ?
_chemical_melting_point           ?
_chemical_formula_iupac           'Ga2197 N2294'
_chemical_formula_moiety          'Ga2197 N2294'
_chemical_formula_sum             'Ga2197 N2294'
_chemical_formula_weight          185313.489
_chemical_compound_source         ?
_chemical_absolute_configuration  ?
_exptl_crystal_description        'EDIT-ENTRY'
_diffrn_measurement_device_type   'EDIT-ENTRY'
 
_space_group_IT_number            1
_space_group_crystal_system       orthorhombic
_symmetry_space_group_name_Hall   'P 1'
_symmetry_space_group_name_H-M    'P 1'
 
loop_
_space_group_symop_operation_xyz
'+x,+y,+z'
 
_cell_length_a                    37.7090
_cell_length_b                    42.2320
_cell_length_c                    73.5775
_cell_angle_alpha                 90.0000
_cell_angle_beta                  90.0000
_cell_angle_gamma                 90.0000
_cell_volume                      117174.1232
 
loop_
 _atom_site_label
 _atom_site_type_symbol
 _atom_site_fract_x
 _atom_site_fract_y
 _atom_site_fract_z
Ga1  Ga  -0.000000 -0.000000  0.025000
Ga2  Ga  -0.000000  0.905285  0.025000
Ga3  Ga  -0.000000 -0.000000  0.100000
Ga4  Ga  -0.000000  0.905285  0.100000
Ga5  Ga  -0.000000 -0.000000  0.175000
Ga6  Ga  -0.000000  0.905285  0.175000
Ga7  Ga  -0.000000 -0.000000  0.250000
Ga8  Ga  -0.000000  0.905285  0.250000
Ga9  Ga  -0.000000 -0.000000  0.325000
Ga10  Ga  -0.000000  0.905285  0.325000
Ga11  Ga  -0.000000 -0.000000  0.400000
Ga12  Ga  -0.000000  0.905285  0.400000
Ga13  Ga  -0.000000 -0.000000  0.475000
Ga14  Ga  -0.000000  0.905285  0.475000
Ga15  Ga  -0.000000 -0.000000  0.550000
Ga16  Ga  -0.000000  0.905285  0.550000
Ga17  Ga  -0.000000 -0.000000  0.625000
Ga18  Ga  -0.000000  0.905285  0.625000
Ga19  Ga  -0.000000 -0.000000  0.700000
Ga20  Ga  -0.000000  0.905285  0.700000
Ga21  Ga  -0.000000 -0.000000  0.775000
Ga22  Ga  -0.000000  0.905285  0.775000
Ga23  Ga  -0.000000 -0.000000  0.850000
Ga24  Ga  -0.000000  0.905285  0.850000
Ga25  Ga  -0.000000 -0.000000  0.925000
Ga26  Ga  -0.000000  0.905285  0.925000
Ga27  Ga  -0.000000  0.075440  0.025000
Ga28  Ga  -0.000000  0.075440  0.100000
Ga29  Ga  -0.000000  0.075440  0.175000
Ga30  Ga  -0.000000  0.075440  0.250000
Ga31  Ga  -0.000000  0.075440  0.325000
Ga32  Ga  -0.000000  0.075440  0.400000
Ga33  Ga  -0.000000  0.075440  0.475000
Ga34  Ga  -0.000000  0.075440  0.550000
Ga35  Ga  -0.000000  0.075440  0.625000
Ga36  Ga  -0.000000  0.075440  0.700000
Ga37  Ga  -0.000000  0.075440  0.775000
Ga38  Ga  -0.000000  0.075440  0.850000
Ga39  Ga  -0.000000  0.075440  0.925000
Ga40  Ga  -0.000000  0.150881  0.025000
Ga41  Ga  -0.000000  0.150881  0.100000
Ga42  Ga  -0.000000  0.150881  0.175000
Ga43  Ga  -0.000000  0.150881  0.250000
Ga44  Ga  -0.000000  0.150881  0.325000
Ga45  Ga  -0.000000  0.150881  0.400000
Ga46  Ga  -0.000000  0.150881  0.475000
Ga47  Ga  -0.000000  0.150881  0.550000
Ga48  Ga  -0.000000  0.150881  0.625000
Ga49  Ga  -0.000000  0.150881  0.700000
Ga50  Ga  -0.000000  0.150881  0.775000
Ga51  Ga  -0.000000  0.150881  0.850000
Ga52  Ga  -0.000000  0.150881  0.925000
Ga53  Ga  -0.000000  0.226321  0.025000
Ga54  Ga  -0.000000  0.226321  0.100000
Ga55  Ga  -0.000000  0.226321  0.175000
Ga56  Ga  -0.000000  0.226321  0.250000
Ga57  Ga  -0.000000  0.226321  0.325000
Ga58  Ga  -0.000000  0.226321  0.400000
Ga59  Ga  -0.000000  0.226321  0.475000
Ga60  Ga  -0.000000  0.226321  0.550000
Ga61  Ga  -0.000000  0.226321  0.625000
Ga62  Ga  -0.000000  0.226321  0.700000
Ga63  Ga  -0.000000  0.226321  0.775000
Ga64  Ga  -0.000000  0.226321  0.850000
Ga65  Ga  -0.000000  0.226321  0.925000
Ga66  Ga  -0.000000  0.301762  0.025000
Ga67  Ga  -0.000000  0.301762  0.100000
Ga68  Ga  -0.000000  0.301762  0.175000
Ga69  Ga  -0.000000  0.301762  0.250000
Ga70  Ga  -0.000000  0.301762  0.325000
Ga71  Ga  -0.000000  0.301762  0.400000
Ga72  Ga  -0.000000  0.301762  0.475000
Ga73  Ga  -0.000000  0.301762  0.550000
Ga74  Ga  -0.000000  0.301762  0.625000
Ga75  Ga  -0.000000  0.301762  0.700000
Ga76  Ga  -0.000000  0.301762  0.775000
Ga77  Ga  -0.000000  0.301762  0.850000
Ga78  Ga  -0.000000  0.301762  0.925000
Ga79  Ga  -0.000000  0.377202  0.025000
Ga80  Ga  -0.000000  0.377202  0.100000
Ga81  Ga  -0.000000  0.377202  0.175000
Ga82  Ga  -0.000000  0.377202  0.250000
Ga83  Ga  -0.000000  0.377202  0.325000
Ga84  Ga  -0.000000  0.377202  0.400000
Ga85  Ga  -0.000000  0.377202  0.475000
Ga86  Ga  -0.000000  0.377202  0.550000
Ga87  Ga  -0.000000  0.377202  0.625000
Ga88  Ga  -0.000000  0.377202  0.700000
Ga89  Ga  -0.000000  0.377202  0.775000
Ga90  Ga  -0.000000  0.377202  0.850000
Ga91  Ga  -0.000000  0.377202  0.925000
Ga92  Ga  -0.000000  0.452643  0.025000
Ga93  Ga  0.825161  0.452643  0.025000
Ga94  Ga  -0.000000  0.452643  0.100000
Ga95  Ga  0.825161  0.452643  0.100000
Ga96  Ga  -0.000000  0.452643  0.175000
Ga97  Ga  0.825161  0.452643  0.175000
Ga98  Ga  -0.000000  0.452643  0.250000
Ga99  Ga  0.825161  0.452643  0.250000
Ga100  Ga  -0.000000  0.452643  0.325000
Ga101  Ga  0.825161  0.452643  0.325000
Ga102  Ga  -0.000000  0.452643  0.400000
Ga103  Ga  0.825161  0.452643  0.400000
Ga104  Ga  -0.000000  0.452643  0.475000
Ga105  Ga  0.825161  0.452643  0.475000
Ga106  Ga  -0.000000  0.452643  0.550000
Ga107  Ga  0.825161  0.452643  0.550000
Ga108  Ga  -0.000000  0.452643  0.625000
Ga109  Ga  0.825161  0.452643  0.625000
Ga110  Ga  -0.000000  0.452643  0.700000
Ga111  Ga  0.825161  0.452643  0.700000
Ga112  Ga  -0.000000  0.452643  0.775000
Ga113  Ga  0.825161  0.452643  0.775000
Ga114  Ga  -0.000000  0.452643  0.850000
Ga115  Ga  0.825161  0.452643  0.850000
Ga116  Ga  -0.000000  0.452643  0.925000
Ga117  Ga  0.825161  0.452643  0.925000
Ga118  Ga  -0.000000  0.528083  0.025000
Ga119  Ga  -0.000000  0.528083  0.100000
Ga120  Ga  -0.000000  0.528083  0.175000
Ga121  Ga  -0.000000  0.528083  0.250000
Ga122  Ga  -0.000000  0.528083  0.325000
Ga123  Ga  -0.000000  0.528083  0.400000
Ga124  Ga  -0.000000  0.528083  0.475000
Ga125  Ga  -0.000000  0.528083  0.550000
Ga126  Ga  -0.000000  0.528083  0.625000
Ga127  Ga  -0.000000  0.528083  0.700000
Ga128  Ga  -0.000000  0.528083  0.775000
Ga129  Ga  -0.000000  0.528083  0.850000
Ga130  Ga  -0.000000  0.528083  0.925000
Ga131  Ga  -0.000000  0.603523  0.025000
Ga132  Ga  -0.000000  0.603523  0.100000
Ga133  Ga  -0.000000  0.603523  0.175000
Ga134  Ga  -0.000000  0.603523  0.250000
Ga135  Ga  -0.000000  0.603523  0.325000
Ga136  Ga  -0.000000  0.603523  0.400000
Ga137  Ga  -0.000000  0.603523  0.475000
Ga138  Ga  -0.000000  0.603523  0.550000
Ga139  Ga  -0.000000  0.603523  0.625000
Ga140  Ga  -0.000000  0.603523  0.700000
Ga141  Ga  -0.000000  0.603523  0.775000
Ga142  Ga  -0.000000  0.603523  0.850000
Ga143  Ga  -0.000000  0.603523  0.925000
Ga144  Ga  -0.000000  0.678964  0.025000
Ga145  Ga  -0.000000  0.678964  0.100000
Ga146  Ga  -0.000000  0.678964  0.175000
Ga147  Ga  -0.000000  0.678964  0.250000
Ga148  Ga  -0.000000  0.678964  0.325000
Ga149  Ga  -0.000000  0.678964  0.400000
Ga150  Ga  -0.000000  0.678964  0.475000
Ga151  Ga  -0.000000  0.678964  0.550000
Ga152  Ga  -0.000000  0.678964  0.625000
Ga153  Ga  -0.000000  0.678964  0.700000
Ga154  Ga  -0.000000  0.678964  0.775000
Ga155  Ga  -0.000000  0.678964  0.850000
Ga156  Ga  -0.000000  0.678964  0.925000
Ga157  Ga  -0.000000  0.754404  0.025000
Ga158  Ga  -0.000000  0.754404  0.100000
Ga159  Ga  -0.000000  0.754404  0.175000
Ga160  Ga  -0.000000  0.754404  0.250000
Ga161  Ga  -0.000000  0.754404  0.325000
Ga162  Ga  -0.000000  0.754404  0.400000
Ga163  Ga  -0.000000  0.754404  0.475000
Ga164  Ga  -0.000000  0.754404  0.550000
Ga165  Ga  -0.000000  0.754404  0.625000
Ga166  Ga  -0.000000  0.754404  0.700000
Ga167  Ga  -0.000000  0.754404  0.775000
Ga168  Ga  -0.000000  0.754404  0.850000
Ga169  Ga  -0.000000  0.754404  0.925000
Ga170  Ga  -0.000000  0.829845  0.025000
Ga171  Ga  -0.000000  0.829845  0.100000
Ga172  Ga  -0.000000  0.829845  0.175000
Ga173  Ga  -0.000000  0.829845  0.250000
Ga174  Ga  -0.000000  0.829845  0.325000
Ga175  Ga  -0.000000  0.829845  0.400000
Ga176  Ga  -0.000000  0.829845  0.475000
Ga177  Ga  -0.000000  0.829845  0.550000
Ga178  Ga  -0.000000  0.829845  0.625000
Ga179  Ga  -0.000000  0.829845  0.700000
Ga180  Ga  -0.000000  0.829845  0.775000
Ga181  Ga  -0.000000  0.829845  0.850000
Ga182  Ga  -0.000000  0.829845  0.925000
Ga183  Ga  0.137527  0.075440  0.025000
Ga184  Ga  0.137527  0.075440  0.100000
Ga185  Ga  0.137527  0.075440  0.175000
Ga186  Ga  0.137527  0.075440  0.250000
Ga187  Ga  0.137527  0.075440  0.325000
Ga188  Ga  0.137527  0.075440  0.400000
Ga189  Ga  0.137527  0.075440  0.475000
Ga190  Ga  0.137527  0.075440  0.550000
Ga191  Ga  0.137527  0.075440  0.625000
Ga192  Ga  0.137527  0.075440  0.700000
Ga193  Ga  0.137527  0.075440  0.775000
Ga194  Ga  0.137527  0.075440  0.850000
Ga195  Ga  0.137527  0.075440  0.925000
Ga196  Ga  0.137527  0.150881  0.025000
Ga197  Ga  0.137527  0.150881  0.100000
Ga198  Ga  0.137527  0.150881  0.175000
Ga199  Ga  0.137527  0.150881  0.250000
Ga200  Ga  0.137527  0.150881  0.325000
Ga201  Ga  0.137527  0.150881  0.400000
Ga202  Ga  0.137527  0.150881  0.475000
Ga203  Ga  0.137527  0.150881  0.550000
Ga204  Ga  0.137527  0.150881  0.625000
Ga205  Ga  0.137527  0.150881  0.700000
Ga206  Ga  0.137527  0.150881  0.775000
Ga207  Ga  0.137527  0.150881  0.850000
Ga208  Ga  0.137527  0.150881  0.925000
Ga209  Ga  0.137527  0.226321  0.025000
Ga210  Ga  0.137527  0.226321  0.100000
Ga211  Ga  0.137527  0.226321  0.175000
Ga212  Ga  0.137527  0.226321  0.250000
Ga213  Ga  0.137527  0.226321  0.325000
Ga214  Ga  0.137527  0.226321  0.400000
Ga215  Ga  0.137527  0.226321  0.475000
Ga216  Ga  0.137527  0.226321  0.550000
Ga217  Ga  0.137527  0.226321  0.625000
Ga218  Ga  0.137527  0.226321  0.700000
Ga219  Ga  0.137527  0.226321  0.775000
Ga220  Ga  0.137527  0.226321  0.850000
Ga221  Ga  0.137527  0.226321  0.925000
Ga222  Ga  0.137527  0.301762  0.025000
Ga223  Ga  0.137527  0.301762  0.100000
Ga224  Ga  0.137527  0.301762  0.175000
Ga225  Ga  0.137527  0.301762  0.250000
Ga226  Ga  0.137527  0.301762  0.325000
Ga227  Ga  0.137527  0.301762  0.400000
Ga228  Ga  0.137527  0.301762  0.475000
Ga229  Ga  0.137527  0.301762  0.550000
Ga230  Ga  0.137527  0.301762  0.625000
Ga231  Ga  0.137527  0.301762  0.700000
Ga232  Ga  0.137527  0.301762  0.775000
Ga233  Ga  0.137527  0.301762  0.850000
Ga234  Ga  0.137527  0.301762  0.925000
Ga235  Ga  0.137527  0.377202  0.025000
Ga236  Ga  0.137527  0.377202  0.100000
Ga237  Ga  0.137527  0.377202  0.175000
Ga238  Ga  0.137527  0.377202  0.250000
Ga239  Ga  0.137527  0.377202  0.325000
Ga240  Ga  0.137527  0.377202  0.400000
Ga241  Ga  0.137527  0.377202  0.475000
Ga242  Ga  0.137527  0.377202  0.550000
Ga243  Ga  0.137527  0.377202  0.625000
Ga244  Ga  0.137527  0.377202  0.700000
Ga245  Ga  0.137527  0.377202  0.775000
Ga246  Ga  0.137527  0.377202  0.850000
Ga247  Ga  0.137527  0.377202  0.925000
Ga248  Ga  0.137527  0.452643  0.025000
Ga249  Ga  0.137527  0.452643  0.100000
Ga250  Ga  0.137527  0.452643  0.175000
Ga251  Ga  0.137527  0.452643  0.250000
Ga252  Ga  0.137527  0.452643  0.325000
Ga253  Ga  0.137527  0.452643  0.400000
Ga254  Ga  0.137527  0.452643  0.475000
Ga255  Ga  0.137527  0.452643  0.550000
Ga256  Ga  0.137527  0.452643  0.625000
Ga257  Ga  0.137527  0.452643  0.700000
Ga258  Ga  0.137527  0.452643  0.775000
Ga259  Ga  0.137527  0.452643  0.850000
Ga260  Ga  0.137527  0.452643  0.925000
Ga261  Ga  0.137527  0.528083  0.025000
Ga262  Ga  0.137527  0.528083  0.100000
Ga263  Ga  0.137527  0.528083  0.175000
Ga264  Ga  0.137527  0.528083  0.250000
Ga265  Ga  0.137527  0.528083  0.325000
Ga266  Ga  0.137527  0.528083  0.400000
Ga267  Ga  0.137527  0.528083  0.475000
Ga268  Ga  0.137527  0.528083  0.550000
Ga269  Ga  0.137527  0.528083  0.625000
Ga270  Ga  0.137527  0.528083  0.700000
Ga271  Ga  0.137527  0.528083  0.775000
Ga272  Ga  0.137527  0.528083  0.850000
Ga273  Ga  0.137527  0.528083  0.925000
Ga274  Ga  0.137527  0.603523  0.025000
Ga275  Ga  0.137527  0.603523  0.100000
Ga276  Ga  0.137527  0.603523  0.175000
Ga277  Ga  0.137527  0.603523  0.250000
Ga278  Ga  0.137527  0.603523  0.325000
Ga279  Ga  0.137527  0.603523  0.400000
Ga280  Ga  0.137527  0.603523  0.475000
Ga281  Ga  0.137527  0.603523  0.550000
Ga282  Ga  0.137527  0.603523  0.625000
Ga283  Ga  0.137527  0.603523  0.700000
Ga284  Ga  0.137527  0.603523  0.775000
Ga285  Ga  0.137527  0.603523  0.850000
Ga286  Ga  0.137527  0.603523  0.925000
Ga287  Ga  0.137527  0.678964  0.025000
Ga288  Ga  0.137527  0.678964  0.100000
Ga289  Ga  0.137527  0.678964  0.175000
Ga290  Ga  0.137527  0.678964  0.250000
Ga291  Ga  0.137527  0.678964  0.325000
Ga292  Ga  0.137527  0.678964  0.400000
Ga293  Ga  0.137527  0.678964  0.475000
Ga294  Ga  0.137527  0.678964  0.550000
Ga295  Ga  0.137527  0.678964  0.625000
Ga296  Ga  0.137527  0.678964  0.700000
Ga297  Ga  0.137527  0.678964  0.775000
Ga298  Ga  0.137527  0.678964  0.850000
Ga299  Ga  0.137527  0.678964  0.925000
Ga300  Ga  0.137527  0.754404  0.025000
Ga301  Ga  0.137527  0.754404  0.100000
Ga302  Ga  0.137527  0.754404  0.175000
Ga303  Ga  0.137527  0.754404  0.250000
Ga304  Ga  0.137527  0.754404  0.325000
Ga305  Ga  0.137527  0.754404  0.400000
Ga306  Ga  0.137527  0.754404  0.475000
Ga307  Ga  0.137527  0.754404  0.550000
Ga308  Ga  0.137527  0.754404  0.625000
Ga309  Ga  0.137527  0.754404  0.700000
Ga310  Ga  0.137527  0.754404  0.775000
Ga311  Ga  0.137527  0.754404  0.850000
Ga312  Ga  0.137527  0.754404  0.925000
Ga313  Ga  0.137527  0.829845  0.025000
Ga314  Ga  0.137527  0.829845  0.100000
Ga315  Ga  0.137527  0.829845  0.175000
Ga316  Ga  0.137527  0.829845  0.250000
Ga317  Ga  0.137527  0.829845  0.325000
Ga318  Ga  0.137527  0.829845  0.400000
Ga319  Ga  0.137527  0.829845  0.475000
Ga320  Ga  0.137527  0.829845  0.550000
Ga321  Ga  0.137527  0.829845  0.625000
Ga322  Ga  0.137527  0.829845  0.700000
Ga323  Ga  0.137527  0.829845  0.775000
Ga324  Ga  0.137527  0.829845  0.850000
Ga325  Ga  0.137527  0.829845  0.925000
Ga326  Ga  0.275054  0.150881  0.025000
Ga327  Ga  0.275054  0.150881  0.100000
Ga328  Ga  0.275054  0.150881  0.175000
Ga329  Ga  0.275054  0.150881  0.250000
Ga330  Ga  0.275054  0.150881  0.325000
Ga331  Ga  0.275054  0.150881  0.400000
Ga332  Ga  0.275054  0.150881  0.475000
Ga333  Ga  0.275054  0.150881  0.550000
Ga334  Ga  0.275054  0.150881  0.625000
Ga335  Ga  0.275054  0.150881  0.700000
Ga336  Ga  0.275054  0.150881  0.775000
Ga337  Ga  0.275054  0.150881  0.850000
Ga338  Ga  0.275054  0.150881  0.925000
Ga339  Ga  0.275054  0.226321  0.025000
Ga340  Ga  0.275054  0.226321  0.100000
Ga341  Ga  0.275054  0.226321  0.175000
Ga342  Ga  0.275054  0.226321  0.250000
Ga343  Ga  0.275054  0.226321  0.325000
Ga344  Ga  0.275054  0.226321  0.400000
Ga345  Ga  0.275054  0.226321  0.475000
Ga346  Ga  0.275054  0.226321  0.550000
Ga347  Ga  0.275054  0.226321  0.625000
Ga348  Ga  0.275054  0.226321  0.700000
Ga349  Ga  0.275054  0.226321  0.775000
Ga350  Ga  0.275054  0.226321  0.850000
Ga351  Ga  0.275054  0.226321  0.925000
Ga352  Ga  0.275054  0.301762  0.025000
Ga353  Ga  0.275054  0.301762  0.100000
Ga354  Ga  0.275054  0.301762  0.175000
Ga355  Ga  0.275054  0.301762  0.250000
Ga356  Ga  0.275054  0.301762  0.325000
Ga357  Ga  0.275054  0.301762  0.400000
Ga358  Ga  0.275054  0.301762  0.475000
Ga359  Ga  0.275054  0.301762  0.550000
Ga360  Ga  0.275054  0.301762  0.625000
Ga361  Ga  0.275054  0.301762  0.700000
Ga362  Ga  0.275054  0.301762  0.775000
Ga363  Ga  0.275054  0.301762  0.850000
Ga364  Ga  0.275054  0.301762  0.925000
Ga365  Ga  0.275054  0.377202  0.025000
Ga366  Ga  0.275054  0.377202  0.100000
Ga367  Ga  0.275054  0.377202  0.175000
Ga368  Ga  0.275054  0.377202  0.250000
Ga369  Ga  0.275054  0.377202  0.325000
Ga370  Ga  0.275054  0.377202  0.400000
Ga371  Ga  0.275054  0.377202  0.475000
Ga372  Ga  0.275054  0.377202  0.550000
Ga373  Ga  0.275054  0.377202  0.625000
Ga374  Ga  0.275054  0.377202  0.700000
Ga375  Ga  0.275054  0.377202  0.775000
Ga376  Ga  0.275054  0.377202  0.850000
Ga377  Ga  0.275054  0.377202  0.925000
Ga378  Ga  0.275054  0.452643  0.025000
Ga379  Ga  0.275054  0.452643  0.100000
Ga380  Ga  0.275054  0.452643  0.175000
Ga381  Ga  0.275054  0.452643  0.250000
Ga382  Ga  0.275054  0.452643  0.325000
Ga383  Ga  0.275054  0.452643  0.400000
Ga384  Ga  0.275054  0.452643  0.475000
Ga385  Ga  0.275054  0.452643  0.550000
Ga386  Ga  0.275054  0.452643  0.625000
Ga387  Ga  0.275054  0.452643  0.700000
Ga388  Ga  0.275054  0.452643  0.775000
Ga389  Ga  0.275054  0.452643  0.850000
Ga390  Ga  0.275054  0.452643  0.925000
Ga391  Ga  0.275054  0.528083  0.025000
Ga392  Ga  0.275054  0.528083  0.100000
Ga393  Ga  0.275054  0.528083  0.175000
Ga394  Ga  0.275054  0.528083  0.250000
Ga395  Ga  0.275054  0.528083  0.325000
Ga396  Ga  0.275054  0.528083  0.400000
Ga397  Ga  0.275054  0.528083  0.475000
Ga398  Ga  0.275054  0.528083  0.550000
Ga399  Ga  0.275054  0.528083  0.625000
Ga400  Ga  0.275054  0.528083  0.700000
Ga401  Ga  0.275054  0.528083  0.775000
Ga402  Ga  0.275054  0.528083  0.850000
Ga403  Ga  0.275054  0.528083  0.925000
Ga404  Ga  0.275054  0.603523  0.025000
Ga405  Ga  0.275054  0.603523  0.100000
Ga406  Ga  0.275054  0.603523  0.175000
Ga407  Ga  0.275054  0.603523  0.250000
Ga408  Ga  0.275054  0.603523  0.325000
Ga409  Ga  0.275054  0.603523  0.400000
Ga410  Ga  0.275054  0.603523  0.475000
Ga411  Ga  0.275054  0.603523  0.550000
Ga412  Ga  0.275054  0.603523  0.625000
Ga413  Ga  0.275054  0.603523  0.700000
Ga414  Ga  0.275054  0.603523  0.775000
Ga415  Ga  0.275054  0.603523  0.850000
Ga416  Ga  0.275054  0.603523  0.925000
Ga417  Ga  0.275054  0.678964  0.025000
Ga418  Ga  0.275054  0.678964  0.100000
Ga419  Ga  0.275054  0.678964  0.175000
Ga420  Ga  0.275054  0.678964  0.250000
Ga421  Ga  0.275054  0.678964  0.325000
Ga422  Ga  0.275054  0.678964  0.400000
Ga423  Ga  0.275054  0.678964  0.475000
Ga424  Ga  0.275054  0.678964  0.550000
Ga425  Ga  0.275054  0.678964  0.625000
Ga426  Ga  0.275054  0.678964  0.700000
Ga427  Ga  0.275054  0.678964  0.775000
Ga428  Ga  0.275054  0.678964  0.850000
Ga429  Ga  0.275054  0.678964  0.925000
Ga430  Ga  0.275054  0.754404  0.025000
Ga431  Ga  0.275054  0.754404  0.100000
Ga432  Ga  0.275054  0.754404  0.175000
Ga433  Ga  0.275054  0.754404  0.250000
Ga434  Ga  0.275054  0.754404  0.325000
Ga435  Ga  0.275054  0.754404  0.400000
Ga436  Ga  0.275054  0.754404  0.475000
Ga437  Ga  0.275054  0.754404  0.550000
Ga438  Ga  0.275054  0.754404  0.625000
Ga439  Ga  0.275054  0.754404  0.700000
Ga440  Ga  0.275054  0.754404  0.775000
Ga441  Ga  0.275054  0.754404  0.850000
Ga442  Ga  0.275054  0.754404  0.925000
Ga443  Ga  0.412581  0.226321  0.025000
Ga444  Ga  0.412581  0.226321  0.100000
Ga445  Ga  0.412581  0.226321  0.175000
Ga446  Ga  0.412581  0.226321  0.250000
Ga447  Ga  0.412581  0.226321  0.325000
Ga448  Ga  0.412581  0.226321  0.400000
Ga449  Ga  0.412581  0.226321  0.475000
Ga450  Ga  0.412581  0.226321  0.550000
Ga451  Ga  0.412581  0.226321  0.625000
Ga452  Ga  0.412581  0.226321  0.700000
Ga453  Ga  0.412581  0.226321  0.775000
Ga454  Ga  0.412581  0.226321  0.850000
Ga455  Ga  0.412581  0.226321  0.925000
Ga456  Ga  0.412581  0.301762  0.025000
Ga457  Ga  0.412581  0.301762  0.100000
Ga458  Ga  0.412581  0.301762  0.175000
Ga459  Ga  0.412581  0.301762  0.250000
Ga460  Ga  0.412581  0.301762  0.325000
Ga461  Ga  0.412581  0.301762  0.400000
Ga462  Ga  0.412581  0.301762  0.475000
Ga463  Ga  0.412581  0.301762  0.550000
Ga464  Ga  0.412581  0.301762  0.625000
Ga465  Ga  0.412581  0.301762  0.700000
Ga466  Ga  0.412581  0.301762  0.775000
Ga467  Ga  0.412581  0.301762  0.850000
Ga468  Ga  0.412581  0.301762  0.925000
Ga469  Ga  0.412581  0.377202  0.025000
Ga470  Ga  0.412581  0.377202  0.100000
Ga471  Ga  0.412581  0.377202  0.175000
Ga472  Ga  0.412581  0.377202  0.250000
Ga473  Ga  0.412581  0.377202  0.325000
Ga474  Ga  0.412581  0.377202  0.400000
Ga475  Ga  0.412581  0.377202  0.475000
Ga476  Ga  0.412581  0.377202  0.550000
Ga477  Ga  0.412581  0.377202  0.625000
Ga478  Ga  0.412581  0.377202  0.700000
Ga479  Ga  0.412581  0.377202  0.775000
Ga480  Ga  0.412581  0.377202  0.850000
Ga481  Ga  0.412581  0.377202  0.925000
Ga482  Ga  0.412581  0.452643  0.025000
Ga483  Ga  0.412581  0.452643  0.100000
Ga484  Ga  0.412581  0.452643  0.175000
Ga485  Ga  0.412581  0.452643  0.250000
Ga486  Ga  0.412581  0.452643  0.325000
Ga487  Ga  0.412581  0.452643  0.400000
Ga488  Ga  0.412581  0.452643  0.475000
Ga489  Ga  0.412581  0.452643  0.550000
Ga490  Ga  0.412581  0.452643  0.625000
Ga491  Ga  0.412581  0.452643  0.700000
Ga492  Ga  0.412581  0.452643  0.775000
Ga493  Ga  0.412581  0.452643  0.850000
Ga494  Ga  0.412581  0.452643  0.925000
Ga495  Ga  0.412581  0.528083  0.025000
Ga496  Ga  0.412581  0.528083  0.100000
Ga497  Ga  0.412581  0.528083  0.175000
Ga498  Ga  0.412581  0.528083  0.250000
Ga499  Ga  0.412581  0.528083  0.325000
Ga500  Ga  0.412581  0.528083  0.400000
Ga501  Ga  0.412581  0.528083  0.475000
Ga502  Ga  0.412581  0.528083  0.550000
Ga503  Ga  0.412581  0.528083  0.625000
Ga504  Ga  0.412581  0.528083  0.700000
Ga505  Ga  0.412581  0.528083  0.775000
Ga506  Ga  0.412581  0.528083  0.850000
Ga507  Ga  0.412581  0.528083  0.925000
Ga508  Ga  0.412581  0.603523  0.025000
Ga509  Ga  0.412581  0.603523  0.100000
Ga510  Ga  0.412581  0.603523  0.175000
Ga511  Ga  0.412581  0.603523  0.250000
Ga512  Ga  0.412581  0.603523  0.325000
Ga513  Ga  0.412581  0.603523  0.400000
Ga514  Ga  0.412581  0.603523  0.475000
Ga515  Ga  0.412581  0.603523  0.550000
Ga516  Ga  0.412581  0.603523  0.625000
Ga517  Ga  0.412581  0.603523  0.700000
Ga518  Ga  0.412581  0.603523  0.775000
Ga519  Ga  0.412581  0.603523  0.850000
Ga520  Ga  0.412581  0.603523  0.925000
Ga521  Ga  0.412581  0.678964  0.025000
Ga522  Ga  0.412581  0.678964  0.100000
Ga523  Ga  0.412581  0.678964  0.175000
Ga524  Ga  0.412581  0.678964  0.250000
Ga525  Ga  0.412581  0.678964  0.325000
Ga526  Ga  0.412581  0.678964  0.400000
Ga527  Ga  0.412581  0.678964  0.475000
Ga528  Ga  0.412581  0.678964  0.550000
Ga529  Ga  0.412581  0.678964  0.625000
Ga530  Ga  0.412581  0.678964  0.700000
Ga531  Ga  0.412581  0.678964  0.775000
Ga532  Ga  0.412581  0.678964  0.850000
Ga533  Ga  0.412581  0.678964  0.925000
Ga534  Ga  0.550107  0.301762  0.025000
Ga535  Ga  0.550107  0.301762  0.100000
Ga536  Ga  0.550107  0.301762  0.175000
Ga537  Ga  0.550107  0.301762  0.250000
Ga538  Ga  0.550107  0.301762  0.325000
Ga539  Ga  0.550107  0.301762  0.400000
Ga540  Ga  0.550107  0.301762  0.475000
Ga541  Ga  0.550107  0.301762  0.550000
Ga542  Ga  0.550107  0.301762  0.625000
Ga543  Ga  0.550107  0.301762  0.700000
Ga544  Ga  0.550107  0.301762  0.775000
Ga545  Ga  0.550107  0.301762  0.850000
Ga546  Ga  0.550107  0.301762  0.925000
Ga547  Ga  0.550107  0.377202  0.025000
Ga548  Ga  0.550107  0.377202  0.100000
Ga549  Ga  0.550107  0.377202  0.175000
Ga550  Ga  0.550107  0.377202  0.250000
Ga551  Ga  0.550107  0.377202  0.325000
Ga552  Ga  0.550107  0.377202  0.400000
Ga553  Ga  0.550107  0.377202  0.475000
Ga554  Ga  0.550107  0.377202  0.550000
Ga555  Ga  0.550107  0.377202  0.625000
Ga556  Ga  0.550107  0.377202  0.700000
Ga557  Ga  0.550107  0.377202  0.775000
Ga558  Ga  0.550107  0.377202  0.850000
Ga559  Ga  0.550107  0.377202  0.925000
Ga560  Ga  0.550107  0.452643  0.025000
Ga561  Ga  0.550107  0.452643  0.100000
Ga562  Ga  0.550107  0.452643  0.175000
Ga563  Ga  0.550107  0.452643  0.250000
Ga564  Ga  0.550107  0.452643  0.325000
Ga565  Ga  0.550107  0.452643  0.400000
Ga566  Ga  0.550107  0.452643  0.475000
Ga567  Ga  0.550107  0.452643  0.550000
Ga568  Ga  0.550107  0.452643  0.625000
Ga569  Ga  0.550107  0.452643  0.700000
Ga570  Ga  0.550107  0.452643  0.775000
Ga571  Ga  0.550107  0.452643  0.850000
Ga572  Ga  0.550107  0.452643  0.925000
Ga573  Ga  0.550107  0.528083  0.025000
Ga574  Ga  0.550107  0.528083  0.100000
Ga575  Ga  0.550107  0.528083  0.175000
Ga576  Ga  0.550107  0.528083  0.250000
Ga577  Ga  0.550107  0.528083  0.325000
Ga578  Ga  0.550107  0.528083  0.400000
Ga579  Ga  0.550107  0.528083  0.475000
Ga580  Ga  0.550107  0.528083  0.550000
Ga581  Ga  0.550107  0.528083  0.625000
Ga582  Ga  0.550107  0.528083  0.700000
Ga583  Ga  0.550107  0.528083  0.775000
Ga584  Ga  0.550107  0.528083  0.850000
Ga585  Ga  0.550107  0.528083  0.925000
Ga586  Ga  0.550107  0.603523  0.025000
Ga587  Ga  0.550107  0.603523  0.100000
Ga588  Ga  0.550107  0.603523  0.175000
Ga589  Ga  0.550107  0.603523  0.250000
Ga590  Ga  0.550107  0.603523  0.325000
Ga591  Ga  0.550107  0.603523  0.400000
Ga592  Ga  0.550107  0.603523  0.475000
Ga593  Ga  0.550107  0.603523  0.550000
Ga594  Ga  0.550107  0.603523  0.625000
Ga595  Ga  0.550107  0.603523  0.700000
Ga596  Ga  0.550107  0.603523  0.775000
Ga597  Ga  0.550107  0.603523  0.850000
Ga598  Ga  0.550107  0.603523  0.925000
Ga599  Ga  0.687634  0.377202  0.025000
Ga600  Ga  0.687634  0.377202  0.100000
Ga601  Ga  0.687634  0.377202  0.175000
Ga602  Ga  0.687634  0.377202  0.250000
Ga603  Ga  0.687634  0.377202  0.325000
Ga604  Ga  0.687634  0.377202  0.400000
Ga605  Ga  0.687634  0.377202  0.475000
Ga606  Ga  0.687634  0.377202  0.550000
Ga607  Ga  0.687634  0.377202  0.625000
Ga608  Ga  0.687634  0.377202  0.700000
Ga609  Ga  0.687634  0.377202  0.775000
Ga610  Ga  0.687634  0.377202  0.850000
Ga611  Ga  0.687634  0.377202  0.925000
Ga612  Ga  0.687634  0.452643  0.025000
Ga613  Ga  0.687634  0.452643  0.100000
Ga614  Ga  0.687634  0.452643  0.175000
Ga615  Ga  0.687634  0.452643  0.250000
Ga616  Ga  0.687634  0.452643  0.325000
Ga617  Ga  0.687634  0.452643  0.400000
Ga618  Ga  0.687634  0.452643  0.475000
Ga619  Ga  0.687634  0.452643  0.550000
Ga620  Ga  0.687634  0.452643  0.625000
Ga621  Ga  0.687634  0.452643  0.700000
Ga622  Ga  0.687634  0.452643  0.775000
Ga623  Ga  0.687634  0.452643  0.850000
Ga624  Ga  0.687634  0.452643  0.925000
Ga625  Ga  0.687634  0.528083  0.025000
Ga626  Ga  0.687634  0.528083  0.100000
Ga627  Ga  0.687634  0.528083  0.175000
Ga628  Ga  0.687634  0.528083  0.250000
Ga629  Ga  0.687634  0.528083  0.325000
Ga630  Ga  0.687634  0.528083  0.400000
Ga631  Ga  0.687634  0.528083  0.475000
Ga632  Ga  0.687634  0.528083  0.550000
Ga633  Ga  0.687634  0.528083  0.625000
Ga634  Ga  0.687634  0.528083  0.700000
Ga635  Ga  0.687634  0.528083  0.775000
Ga636  Ga  0.687634  0.528083  0.850000
Ga637  Ga  0.687634  0.528083  0.925000
Ga638  Ga  -0.000000  0.037720  0.062500
Ga639  Ga  -0.000000  0.037720  0.137500
Ga640  Ga  -0.000000  0.037720  0.212500
Ga641  Ga  -0.000000  0.037720  0.287500
Ga642  Ga  -0.000000  0.037720  0.362500
Ga643  Ga  -0.000000  0.037720  0.437500
Ga644  Ga  -0.000000  0.037720  0.512500
Ga645  Ga  -0.000000  0.037720  0.587500
Ga646  Ga  -0.000000  0.037720  0.662500
Ga647  Ga  -0.000000  0.037720  0.737500
Ga648  Ga  -0.000000  0.037720  0.812500
Ga649  Ga  -0.000000  0.037720  0.887500
Ga650  Ga  -0.000000  0.037720  0.962500
Ga651  Ga  -0.000000  0.113161  0.062500
Ga652  Ga  -0.000000  0.113161  0.137500
Ga653  Ga  -0.000000  0.113161  0.212500
Ga654  Ga  -0.000000  0.113161  0.287500
Ga655  Ga  -0.000000  0.113161  0.362500
Ga656  Ga  -0.000000  0.113161  0.437500
Ga657  Ga  -0.000000  0.113161  0.512500
Ga658  Ga  -0.000000  0.113161  0.587500
Ga659  Ga  -0.000000  0.113161  0.662500
Ga660  Ga  -0.000000  0.113161  0.737500
Ga661  Ga  -0.000000  0.113161  0.812500
Ga662  Ga  -0.000000  0.113161  0.887500
Ga663  Ga  -0.000000  0.113161  0.962500
Ga664  Ga  -0.000000  0.188601  0.062500
Ga665  Ga  -0.000000  0.188601  0.137500
Ga666  Ga  -0.000000  0.188601  0.212500
Ga667  Ga  -0.000000  0.188601  0.287500
Ga668  Ga  -0.000000  0.188601  0.362500
Ga669  Ga  -0.000000  0.188601  0.437500
Ga670  Ga  -0.000000  0.188601  0.512500
Ga671  Ga  -0.000000  0.188601  0.587500
Ga672  Ga  -0.000000  0.188601  0.662500
Ga673  Ga  -0.000000  0.188601  0.737500
Ga674  Ga  -0.000000  0.188601  0.812500
Ga675  Ga  -0.000000  0.188601  0.887500
Ga676  Ga  -0.000000  0.188601  0.962500
Ga677  Ga  -0.000000  0.264041  0.062500
Ga678  Ga  -0.000000  0.264041  0.137500
Ga679  Ga  -0.000000  0.264041  0.212500
Ga680  Ga  -0.000000  0.264041  0.287500
Ga681  Ga  -0.000000  0.264041  0.362500
Ga682  Ga  -0.000000  0.264041  0.437500
Ga683  Ga  -0.000000  0.264041  0.512500
Ga684  Ga  -0.000000  0.264041  0.587500
Ga685  Ga  -0.000000  0.264041  0.662500
Ga686  Ga  -0.000000  0.264041  0.737500
Ga687  Ga  -0.000000  0.264041  0.812500
Ga688  Ga  -0.000000  0.264041  0.887500
Ga689  Ga  -0.000000  0.264041  0.962500
Ga690  Ga  -0.000000  0.339482  0.062500
Ga691  Ga  -0.000000  0.339482  0.137500
Ga692  Ga  -0.000000  0.339482  0.212500
Ga693  Ga  -0.000000  0.339482  0.287500
Ga694  Ga  -0.000000  0.339482  0.362500
Ga695  Ga  -0.000000  0.339482  0.437500
Ga696  Ga  -0.000000  0.339482  0.512500
Ga697  Ga  -0.000000  0.339482  0.587500
Ga698  Ga  -0.000000  0.339482  0.662500
Ga699  Ga  -0.000000  0.339482  0.737500
Ga700  Ga  -0.000000  0.339482  0.812500
Ga701  Ga  -0.000000  0.339482  0.887500
Ga702  Ga  -0.000000  0.339482  0.962500
Ga703  Ga  -0.000000  0.414922  0.062500
Ga704  Ga  -0.000000  0.414922  0.137500
Ga705  Ga  -0.000000  0.414922  0.212500
Ga706  Ga  -0.000000  0.414922  0.287500
Ga707  Ga  -0.000000  0.414922  0.362500
Ga708  Ga  -0.000000  0.414922  0.437500
Ga709  Ga  -0.000000  0.414922  0.512500
Ga710  Ga  -0.000000  0.414922  0.587500
Ga711  Ga  -0.000000  0.414922  0.662500
Ga712  Ga  -0.000000  0.414922  0.737500
Ga713  Ga  -0.000000  0.414922  0.812500
Ga714  Ga  -0.000000  0.414922  0.887500
Ga715  Ga  -0.000000  0.414922  0.962500
Ga716  Ga  -0.000000  0.490363  0.062500
Ga717  Ga  -0.000000  0.490363  0.137500
Ga718  Ga  -0.000000  0.490363  0.212500
Ga719  Ga  -0.000000  0.490363  0.287500
Ga720  Ga  -0.000000  0.490363  0.362500
Ga721  Ga  -0.000000  0.490363  0.437500
Ga722  Ga  -0.000000  0.490363  0.512500
Ga723  Ga  -0.000000  0.490363  0.587500
Ga724  Ga  -0.000000  0.490363  0.662500
Ga725  Ga  -0.000000  0.490363  0.737500
Ga726  Ga  -0.000000  0.490363  0.812500
Ga727  Ga  -0.000000  0.490363  0.887500
Ga728  Ga  -0.000000  0.490363  0.962500
Ga729  Ga  -0.000000  0.565803  0.062500
Ga730  Ga  -0.000000  0.565803  0.137500
Ga731  Ga  -0.000000  0.565803  0.212500
Ga732  Ga  -0.000000  0.565803  0.287500
Ga733  Ga  -0.000000  0.565803  0.362500
Ga734  Ga  -0.000000  0.565803  0.437500
Ga735  Ga  -0.000000  0.565803  0.512500
Ga736  Ga  -0.000000  0.565803  0.587500
Ga737  Ga  -0.000000  0.565803  0.662500
Ga738  Ga  -0.000000  0.565803  0.737500
Ga739  Ga  -0.000000  0.565803  0.812500
Ga740  Ga  -0.000000  0.565803  0.887500
Ga741  Ga  -0.000000  0.565803  0.962500
Ga742  Ga  -0.000000  0.641244  0.062500
Ga743  Ga  -0.000000  0.641244  0.137500
Ga744  Ga  -0.000000  0.641244  0.212500
Ga745  Ga  -0.000000  0.641244  0.287500
Ga746  Ga  -0.000000  0.641244  0.362500
Ga747  Ga  -0.000000  0.641244  0.437500
Ga748  Ga  -0.000000  0.641244  0.512500
Ga749  Ga  -0.000000  0.641244  0.587500
Ga750  Ga  -0.000000  0.641244  0.662500
Ga751  Ga  -0.000000  0.641244  0.737500
Ga752  Ga  -0.000000  0.641244  0.812500
Ga753  Ga  -0.000000  0.641244  0.887500
Ga754  Ga  -0.000000  0.641244  0.962500
Ga755  Ga  -0.000000  0.716684  0.062500
Ga756  Ga  -0.000000  0.716684  0.137500
Ga757  Ga  -0.000000  0.716684  0.212500
Ga758  Ga  -0.000000  0.716684  0.287500
Ga759  Ga  -0.000000  0.716684  0.362500
Ga760  Ga  -0.000000  0.716684  0.437500
Ga761  Ga  -0.000000  0.716684  0.512500
Ga762  Ga  -0.000000  0.716684  0.587500
Ga763  Ga  -0.000000  0.716684  0.662500
Ga764  Ga  -0.000000  0.716684  0.737500
Ga765  Ga  -0.000000  0.716684  0.812500
Ga766  Ga  -0.000000  0.716684  0.887500
Ga767  Ga  -0.000000  0.716684  0.962500
Ga768  Ga  -0.000000  0.792124  0.062500
Ga769  Ga  -0.000000  0.792124  0.137500
Ga770  Ga  -0.000000  0.792124  0.212500
Ga771  Ga  -0.000000  0.792124  0.287500
Ga772  Ga  -0.000000  0.792124  0.362500
Ga773  Ga  -0.000000  0.792124  0.437500
Ga774  Ga  -0.000000  0.792124  0.512500
Ga775  Ga  -0.000000  0.792124  0.587500
Ga776  Ga  -0.000000  0.792124  0.662500
Ga777  Ga  -0.000000  0.792124  0.737500
Ga778  Ga  -0.000000  0.792124  0.812500
Ga779  Ga  -0.000000  0.792124  0.887500
Ga780  Ga  -0.000000  0.792124  0.962500
Ga781  Ga  -0.000000  0.867565  0.062500
Ga782  Ga  -0.000000  0.867565  0.137500
Ga783  Ga  -0.000000  0.867565  0.212500
Ga784  Ga  -0.000000  0.867565  0.287500
Ga785  Ga  -0.000000  0.867565  0.362500
Ga786  Ga  -0.000000  0.867565  0.437500
Ga787  Ga  -0.000000  0.867565  0.512500
Ga788  Ga  -0.000000  0.867565  0.587500
Ga789  Ga  -0.000000  0.867565  0.662500
Ga790  Ga  -0.000000  0.867565  0.737500
Ga791  Ga  -0.000000  0.867565  0.812500
Ga792  Ga  -0.000000  0.867565  0.887500
Ga793  Ga  -0.000000  0.867565  0.962500
Ga794  Ga  0.137527  0.113161  0.062500
Ga795  Ga  0.137527  0.113161  0.137500
Ga796  Ga  0.137527  0.113161  0.212500
Ga797  Ga  0.137527  0.113161  0.287500
Ga798  Ga  0.137527  0.113161  0.362500
Ga799  Ga  0.137527  0.113161  0.437500
Ga800  Ga  0.137527  0.113161  0.512500
Ga801  Ga  0.137527  0.113161  0.587500
Ga802  Ga  0.137527  0.113161  0.662500
Ga803  Ga  0.137527  0.113161  0.737500
Ga804  Ga  0.137527  0.113161  0.812500
Ga805  Ga  0.137527  0.113161  0.887500
Ga806  Ga  0.137527  0.113161  0.962500
Ga807  Ga  0.137527  0.188601  0.062500
Ga808  Ga  0.137527  0.188601  0.137500
Ga809  Ga  0.137527  0.188601  0.212500
Ga810  Ga  0.137527  0.188601  0.287500
Ga811  Ga  0.137527  0.188601  0.362500
Ga812  Ga  0.137527  0.188601  0.437500
Ga813  Ga  0.137527  0.188601  0.512500
Ga814  Ga  0.137527  0.188601  0.587500
Ga815  Ga  0.137527  0.188601  0.662500
Ga816  Ga  0.137527  0.188601  0.737500
Ga817  Ga  0.137527  0.188601  0.812500
Ga818  Ga  0.137527  0.188601  0.887500
Ga819  Ga  0.137527  0.188601  0.962500
Ga820  Ga  0.137527  0.264041  0.062500
Ga821  Ga  0.137527  0.264041  0.137500
Ga822  Ga  0.137527  0.264041  0.212500
Ga823  Ga  0.137527  0.264041  0.287500
Ga824  Ga  0.137527  0.264041  0.362500
Ga825  Ga  0.137527  0.264041  0.437500
Ga826  Ga  0.137527  0.264041  0.512500
Ga827  Ga  0.137527  0.264041  0.587500
Ga828  Ga  0.137527  0.264041  0.662500
Ga829  Ga  0.137527  0.264041  0.737500
Ga830  Ga  0.137527  0.264041  0.812500
Ga831  Ga  0.137527  0.264041  0.887500
Ga832  Ga  0.137527  0.264041  0.962500
Ga833  Ga  0.137527  0.339482  0.062500
Ga834  Ga  0.137527  0.339482  0.137500
Ga835  Ga  0.137527  0.339482  0.212500
Ga836  Ga  0.137527  0.339482  0.287500
Ga837  Ga  0.137527  0.339482  0.362500
Ga838  Ga  0.137527  0.339482  0.437500
Ga839  Ga  0.137527  0.339482  0.512500
Ga840  Ga  0.137527  0.339482  0.587500
Ga841  Ga  0.137527  0.339482  0.662500
Ga842  Ga  0.137527  0.339482  0.737500
Ga843  Ga  0.137527  0.339482  0.812500
Ga844  Ga  0.137527  0.339482  0.887500
Ga845  Ga  0.137527  0.339482  0.962500
Ga846  Ga  0.137527  0.414922  0.062500
Ga847  Ga  0.137527  0.414922  0.137500
Ga848  Ga  0.137527  0.414922  0.212500
Ga849  Ga  0.137527  0.414922  0.287500
Ga850  Ga  0.137527  0.414922  0.362500
Ga851  Ga  0.137527  0.414922  0.437500
Ga852  Ga  0.137527  0.414922  0.512500
Ga853  Ga  0.137527  0.414922  0.587500
Ga854  Ga  0.137527  0.414922  0.662500
Ga855  Ga  0.137527  0.414922  0.737500
Ga856  Ga  0.137527  0.414922  0.812500
Ga857  Ga  0.137527  0.414922  0.887500
Ga858  Ga  0.137527  0.414922  0.962500
Ga859  Ga  0.137527  0.490363  0.062500
Ga860  Ga  0.137527  0.490363  0.137500
Ga861  Ga  0.137527  0.490363  0.212500
Ga862  Ga  0.137527  0.490363  0.287500
Ga863  Ga  0.137527  0.490363  0.362500
Ga864  Ga  0.137527  0.490363  0.437500
Ga865  Ga  0.137527  0.490363  0.512500
Ga866  Ga  0.137527  0.490363  0.587500
Ga867  Ga  0.137527  0.490363  0.662500
Ga868  Ga  0.137527  0.490363  0.737500
Ga869  Ga  0.137527  0.490363  0.812500
Ga870  Ga  0.137527  0.490363  0.887500
Ga871  Ga  0.137527  0.490363  0.962500
Ga872  Ga  0.137527  0.565803  0.062500
Ga873  Ga  0.137527  0.565803  0.137500
Ga874  Ga  0.137527  0.565803  0.212500
Ga875  Ga  0.137527  0.565803  0.287500
Ga876  Ga  0.137527  0.565803  0.362500
Ga877  Ga  0.137527  0.565803  0.437500
Ga878  Ga  0.137527  0.565803  0.512500
Ga879  Ga  0.137527  0.565803  0.587500
Ga880  Ga  0.137527  0.565803  0.662500
Ga881  Ga  0.137527  0.565803  0.737500
Ga882  Ga  0.137527  0.565803  0.812500
Ga883  Ga  0.137527  0.565803  0.887500
Ga884  Ga  0.137527  0.565803  0.962500
Ga885  Ga  0.137527  0.641244  0.062500
Ga886  Ga  0.137527  0.641244  0.137500
Ga887  Ga  0.137527  0.641244  0.212500
Ga888  Ga  0.137527  0.641244  0.287500
Ga889  Ga  0.137527  0.641244  0.362500
Ga890  Ga  0.137527  0.641244  0.437500
Ga891  Ga  0.137527  0.641244  0.512500
Ga892  Ga  0.137527  0.641244  0.587500
Ga893  Ga  0.137527  0.641244  0.662500
Ga894  Ga  0.137527  0.641244  0.737500
Ga895  Ga  0.137527  0.641244  0.812500
Ga896  Ga  0.137527  0.641244  0.887500
Ga897  Ga  0.137527  0.641244  0.962500
Ga898  Ga  0.137527  0.716684  0.062500
Ga899  Ga  0.137527  0.716684  0.137500
Ga900  Ga  0.137527  0.716684  0.212500
Ga901  Ga  0.137527  0.716684  0.287500
Ga902  Ga  0.137527  0.716684  0.362500
Ga903  Ga  0.137527  0.716684  0.437500
Ga904  Ga  0.137527  0.716684  0.512500
Ga905  Ga  0.137527  0.716684  0.587500
Ga906  Ga  0.137527  0.716684  0.662500
Ga907  Ga  0.137527  0.716684  0.737500
Ga908  Ga  0.137527  0.716684  0.812500
Ga909  Ga  0.137527  0.716684  0.887500
Ga910  Ga  0.137527  0.716684  0.962500
Ga911  Ga  0.137527  0.792124  0.062500
Ga912  Ga  0.137527  0.792124  0.137500
Ga913  Ga  0.137527  0.792124  0.212500
Ga914  Ga  0.137527  0.792124  0.287500
Ga915  Ga  0.137527  0.792124  0.362500
Ga916  Ga  0.137527  0.792124  0.437500
Ga917  Ga  0.137527  0.792124  0.512500
Ga918  Ga  0.137527  0.792124  0.587500
Ga919  Ga  0.137527  0.792124  0.662500
Ga920  Ga  0.137527  0.792124  0.737500
Ga921  Ga  0.137527  0.792124  0.812500
Ga922  Ga  0.137527  0.792124  0.887500
Ga923  Ga  0.137527  0.792124  0.962500
Ga924  Ga  0.275054  0.188601  0.062500
Ga925  Ga  0.275054  0.188601  0.137500
Ga926  Ga  0.275054  0.188601  0.212500
Ga927  Ga  0.275054  0.188601  0.287500
Ga928  Ga  0.275054  0.188601  0.362500
Ga929  Ga  0.275054  0.188601  0.437500
Ga930  Ga  0.275054  0.188601  0.512500
Ga931  Ga  0.275054  0.188601  0.587500
Ga932  Ga  0.275054  0.188601  0.662500
Ga933  Ga  0.275054  0.188601  0.737500
Ga934  Ga  0.275054  0.188601  0.812500
Ga935  Ga  0.275054  0.188601  0.887500
Ga936  Ga  0.275054  0.188601  0.962500
Ga937  Ga  0.275054  0.264041  0.062500
Ga938  Ga  0.275054  0.264041  0.137500
Ga939  Ga  0.275054  0.264041  0.212500
Ga940  Ga  0.275054  0.264041  0.287500
Ga941  Ga  0.275054  0.264041  0.362500
Ga942  Ga  0.275054  0.264041  0.437500
Ga943  Ga  0.275054  0.264041  0.512500
Ga944  Ga  0.275054  0.264041  0.587500
Ga945  Ga  0.275054  0.264041  0.662500
Ga946  Ga  0.275054  0.264041  0.737500
Ga947  Ga  0.275054  0.264041  0.812500
Ga948  Ga  0.275054  0.264041  0.887500
Ga949  Ga  0.275054  0.264041  0.962500
Ga950  Ga  0.275054  0.339482  0.062500
Ga951  Ga  0.275054  0.339482  0.137500
Ga952  Ga  0.275054  0.339482  0.212500
Ga953  Ga  0.275054  0.339482  0.287500
Ga954  Ga  0.275054  0.339482  0.362500
Ga955  Ga  0.275054  0.339482  0.437500
Ga956  Ga  0.275054  0.339482  0.512500
Ga957  Ga  0.275054  0.339482  0.587500
Ga958  Ga  0.275054  0.339482  0.662500
Ga959  Ga  0.275054  0.339482  0.737500
Ga960  Ga  0.275054  0.339482  0.812500
Ga961  Ga  0.275054  0.339482  0.887500
Ga962  Ga  0.275054  0.339482  0.962500
Ga963  Ga  0.275054  0.414922  0.062500
Ga964  Ga  0.275054  0.414922  0.137500
Ga965  Ga  0.275054  0.414922  0.212500
Ga966  Ga  0.275054  0.414922  0.287500
Ga967  Ga  0.275054  0.414922  0.362500
Ga968  Ga  0.275054  0.414922  0.437500
Ga969  Ga  0.275054  0.414922  0.512500
Ga970  Ga  0.275054  0.414922  0.587500
Ga971  Ga  0.275054  0.414922  0.662500
Ga972  Ga  0.275054  0.414922  0.737500
Ga973  Ga  0.275054  0.414922  0.812500
Ga974  Ga  0.275054  0.414922  0.887500
Ga975  Ga  0.275054  0.414922  0.962500
Ga976  Ga  0.275054  0.490363  0.062500
Ga977  Ga  0.275054  0.490363  0.137500
Ga978  Ga  0.275054  0.490363  0.212500
Ga979  Ga  0.275054  0.490363  0.287500
Ga980  Ga  0.275054  0.490363  0.362500
Ga981  Ga  0.275054  0.490363  0.437500
Ga982  Ga  0.275054  0.490363  0.512500
Ga983  Ga  0.275054  0.490363  0.587500
Ga984  Ga  0.275054  0.490363  0.662500
Ga985  Ga  0.275054  0.490363  0.737500
Ga986  Ga  0.275054  0.490363  0.812500
Ga987  Ga  0.275054  0.490363  0.887500
Ga988  Ga  0.275054  0.490363  0.962500
Ga989  Ga  0.275054  0.565803  0.062500
Ga990  Ga  0.275054  0.565803  0.137500
Ga991  Ga  0.275054  0.565803  0.212500
Ga992  Ga  0.275054  0.565803  0.287500
Ga993  Ga  0.275054  0.565803  0.362500
Ga994  Ga  0.275054  0.565803  0.437500
Ga995  Ga  0.275054  0.565803  0.512500
Ga996  Ga  0.275054  0.565803  0.587500
Ga997  Ga  0.275054  0.565803  0.662500
Ga998  Ga  0.275054  0.565803  0.737500
Ga999  Ga  0.275054  0.565803  0.812500
Ga1000  Ga  0.275054  0.565803  0.887500
Ga1001  Ga  0.275054  0.565803  0.962500
Ga1002  Ga  0.275054  0.641244  0.062500
Ga1003  Ga  0.275054  0.641244  0.137500
Ga1004  Ga  0.275054  0.641244  0.212500
Ga1005  Ga  0.275054  0.641244  0.287500
Ga1006  Ga  0.275054  0.641244  0.362500
Ga1007  Ga  0.275054  0.641244  0.437500
Ga1008  Ga  0.275054  0.641244  0.512500
Ga1009  Ga  0.275054  0.641244  0.587500
Ga1010  Ga  0.275054  0.641244  0.662500
Ga1011  Ga  0.275054  0.641244  0.737500
Ga1012  Ga  0.275054  0.641244  0.812500
Ga1013  Ga  0.275054  0.641244  0.887500
Ga1014  Ga  0.275054  0.641244  0.962500
Ga1015  Ga  0.275054  0.716684  0.062500
Ga1016  Ga  0.275054  0.716684  0.137500
Ga1017  Ga  0.275054  0.716684  0.212500
Ga1018  Ga  0.275054  0.716684  0.287500
Ga1019  Ga  0.275054  0.716684  0.362500
Ga1020  Ga  0.275054  0.716684  0.437500
Ga1021  Ga  0.275054  0.716684  0.512500
Ga1022  Ga  0.275054  0.716684  0.587500
Ga1023  Ga  0.275054  0.716684  0.662500
Ga1024  Ga  0.275054  0.716684  0.737500
Ga1025  Ga  0.275054  0.716684  0.812500
Ga1026  Ga  0.275054  0.716684  0.887500
Ga1027  Ga  0.275054  0.716684  0.962500
Ga1028  Ga  0.412581  0.264041  0.062500
Ga1029  Ga  0.412581  0.264041  0.137500
Ga1030  Ga  0.412581  0.264041  0.212500
Ga1031  Ga  0.412581  0.264041  0.287500
Ga1032  Ga  0.412581  0.264041  0.362500
Ga1033  Ga  0.412581  0.264041  0.437500
Ga1034  Ga  0.412581  0.264041  0.512500
Ga1035  Ga  0.412581  0.264041  0.587500
Ga1036  Ga  0.412581  0.264041  0.662500
Ga1037  Ga  0.412581  0.264041  0.737500
Ga1038  Ga  0.412581  0.264041  0.812500
Ga1039  Ga  0.412581  0.264041  0.887500
Ga1040  Ga  0.412581  0.264041  0.962500
Ga1041  Ga  0.412581  0.339482  0.062500
Ga1042  Ga  0.412581  0.339482  0.137500
Ga1043  Ga  0.412581  0.339482  0.212500
Ga1044  Ga  0.412581  0.339482  0.287500
Ga1045  Ga  0.412581  0.339482  0.362500
Ga1046  Ga  0.412581  0.339482  0.437500
Ga1047  Ga  0.412581  0.339482  0.512500
Ga1048  Ga  0.412581  0.339482  0.587500
Ga1049  Ga  0.412581  0.339482  0.662500
Ga1050  Ga  0.412581  0.339482  0.737500
Ga1051  Ga  0.412581  0.339482  0.812500
Ga1052  Ga  0.412581  0.339482  0.887500
Ga1053  Ga  0.412581  0.339482  0.962500
Ga1054  Ga  0.412581  0.414922  0.062500
Ga1055  Ga  0.412581  0.414922  0.137500
Ga1056  Ga  0.412581  0.414922  0.212500
Ga1057  Ga  0.412581  0.414922  0.287500
Ga1058  Ga  0.412581  0.414922  0.362500
Ga1059  Ga  0.412581  0.414922  0.437500
Ga1060  Ga  0.412581  0.414922  0.512500
Ga1061  Ga  0.412581  0.414922  0.587500
Ga1062  Ga  0.412581  0.414922  0.662500
Ga1063  Ga  0.412581  0.414922  0.737500
Ga1064  Ga  0.412581  0.414922  0.812500
Ga1065  Ga  0.412581  0.414922  0.887500
Ga1066  Ga  0.412581  0.414922  0.962500
Ga1067  Ga  0.412581  0.490363  0.062500
Ga1068  Ga  0.412581  0.490363  0.137500
Ga1069  Ga  0.412581  0.490363  0.212500
Ga1070  Ga  0.412581  0.490363  0.287500
Ga1071  Ga  0.412581  0.490363  0.362500
Ga1072  Ga  0.412581  0.490363  0.437500
Ga1073  Ga  0.412581  0.490363  0.512500
Ga1074  Ga  0.412581  0.490363  0.587500
Ga1075  Ga  0.412581  0.490363  0.662500
Ga1076  Ga  0.412581  0.490363  0.737500
Ga1077  Ga  0.412581  0.490363  0.812500
Ga1078  Ga  0.412581  0.490363  0.887500
Ga1079  Ga  0.412581  0.490363  0.962500
Ga1080  Ga  0.412581  0.565803  0.062500
Ga1081  Ga  0.412581  0.565803  0.137500
Ga1082  Ga  0.412581  0.565803  0.212500
Ga1083  Ga  0.412581  0.565803  0.287500
Ga1084  Ga  0.412581  0.565803  0.362500
Ga1085  Ga  0.412581  0.565803  0.437500
Ga1086  Ga  0.412581  0.565803  0.512500
Ga1087  Ga  0.412581  0.565803  0.587500
Ga1088  Ga  0.412581  0.565803  0.662500
Ga1089  Ga  0.412581  0.565803  0.737500
Ga1090  Ga  0.412581  0.565803  0.812500
Ga1091  Ga  0.412581  0.565803  0.887500
Ga1092  Ga  0.412581  0.565803  0.962500
Ga1093  Ga  0.412581  0.641244  0.062500
Ga1094  Ga  0.412581  0.641244  0.137500
Ga1095  Ga  0.412581  0.641244  0.212500
Ga1096  Ga  0.412581  0.641244  0.287500
Ga1097  Ga  0.412581  0.641244  0.362500
Ga1098  Ga  0.412581  0.641244  0.437500
Ga1099  Ga  0.412581  0.641244  0.512500
Ga1100  Ga  0.412581  0.641244  0.587500
Ga1101  Ga  0.412581  0.641244  0.662500
Ga1102  Ga  0.412581  0.641244  0.737500
Ga1103  Ga  0.412581  0.641244  0.812500
Ga1104  Ga  0.412581  0.641244  0.887500
Ga1105  Ga  0.412581  0.641244  0.962500
Ga1106  Ga  0.550107  0.339482  0.062500
Ga1107  Ga  0.550107  0.339482  0.137500
Ga1108  Ga  0.550107  0.339482  0.212500
Ga1109  Ga  0.550107  0.339482  0.287500
Ga1110  Ga  0.550107  0.339482  0.362500
Ga1111  Ga  0.550107  0.339482  0.437500
Ga1112  Ga  0.550107  0.339482  0.512500
Ga1113  Ga  0.550107  0.339482  0.587500
Ga1114  Ga  0.550107  0.339482  0.662500
Ga1115  Ga  0.550107  0.339482  0.737500
Ga1116  Ga  0.550107  0.339482  0.812500
Ga1117  Ga  0.550107  0.339482  0.887500
Ga1118  Ga  0.550107  0.339482  0.962500
Ga1119  Ga  0.550107  0.414922  0.062500
Ga1120  Ga  0.550107  0.414922  0.137500
Ga1121  Ga  0.550107  0.414922  0.212500
Ga1122  Ga  0.550107  0.414922  0.287500
Ga1123  Ga  0.550107  0.414922  0.362500
Ga1124  Ga  0.550107  0.414922  0.437500
Ga1125  Ga  0.550107  0.414922  0.512500
Ga1126  Ga  0.550107  0.414922  0.587500
Ga1127  Ga  0.550107  0.414922  0.662500
Ga1128  Ga  0.550107  0.414922  0.737500
Ga1129  Ga  0.550107  0.414922  0.812500
Ga1130  Ga  0.550107  0.414922  0.887500
Ga1131  Ga  0.550107  0.414922  0.962500
Ga1132  Ga  0.550107  0.490363  0.062500
Ga1133  Ga  0.550107  0.490363  0.137500
Ga1134  Ga  0.550107  0.490363  0.212500
Ga1135  Ga  0.550107  0.490363  0.287500
Ga1136  Ga  0.550107  0.490363  0.362500
Ga1137  Ga  0.550107  0.490363  0.437500
Ga1138  Ga  0.550107  0.490363  0.512500
Ga1139  Ga  0.550107  0.490363  0.587500
Ga1140  Ga  0.550107  0.490363  0.662500
Ga1141  Ga  0.550107  0.490363  0.737500
Ga1142  Ga  0.550107  0.490363  0.812500
Ga1143  Ga  0.550107  0.490363  0.887500
Ga1144  Ga  0.550107  0.490363  0.962500
Ga1145  Ga  0.550107  0.565803  0.062500
Ga1146  Ga  0.550107  0.565803  0.137500
Ga1147  Ga  0.550107  0.565803  0.212500
Ga1148  Ga  0.550107  0.565803  0.287500
Ga1149  Ga  0.550107  0.565803  0.362500
Ga1150  Ga  0.550107  0.565803  0.437500
Ga1151  Ga  0.550107  0.565803  0.512500
Ga1152  Ga  0.550107  0.565803  0.587500
Ga1153  Ga  0.550107  0.565803  0.662500
Ga1154  Ga  0.550107  0.565803  0.737500
Ga1155  Ga  0.550107  0.565803  0.812500
Ga1156  Ga  0.550107  0.565803  0.887500
Ga1157  Ga  0.550107  0.565803  0.962500
Ga1158  Ga  0.687634  0.414922  0.062500
Ga1159  Ga  0.687634  0.414922  0.137500
Ga1160  Ga  0.687634  0.414922  0.212500
Ga1161  Ga  0.687634  0.414922  0.287500
Ga1162  Ga  0.687634  0.414922  0.362500
Ga1163  Ga  0.687634  0.414922  0.437500
Ga1164  Ga  0.687634  0.414922  0.512500
Ga1165  Ga  0.687634  0.414922  0.587500
Ga1166  Ga  0.687634  0.414922  0.662500
Ga1167  Ga  0.687634  0.414922  0.737500
Ga1168  Ga  0.687634  0.414922  0.812500
Ga1169  Ga  0.687634  0.414922  0.887500
Ga1170  Ga  0.687634  0.414922  0.962500
Ga1171  Ga  0.687634  0.490363  0.062500
Ga1172  Ga  0.687634  0.490363  0.137500
Ga1173  Ga  0.687634  0.490363  0.212500
Ga1174  Ga  0.687634  0.490363  0.287500
Ga1175  Ga  0.687634  0.490363  0.362500
Ga1176  Ga  0.687634  0.490363  0.437500
Ga1177  Ga  0.687634  0.490363  0.512500
Ga1178  Ga  0.687634  0.490363  0.587500
Ga1179  Ga  0.687634  0.490363  0.662500
Ga1180  Ga  0.687634  0.490363  0.737500
Ga1181  Ga  0.687634  0.490363  0.812500
Ga1182  Ga  0.687634  0.490363  0.887500
Ga1183  Ga  0.687634  0.490363  0.962500
Ga1184  Ga  0.068763  0.075440  0.050000
Ga1185  Ga  0.068763  0.075440  0.125000
Ga1186  Ga  0.068763  0.075440  0.200000
Ga1187  Ga  0.068763  0.075440  0.275000
Ga1188  Ga  0.068763  0.075440  0.350000
Ga1189  Ga  0.068763  0.075440  0.425000
Ga1190  Ga  0.068763  0.075440  0.500000
Ga1191  Ga  0.068763  0.075440  0.575000
Ga1192  Ga  0.068763  0.075440  0.650000
Ga1193  Ga  0.068763  0.075440  0.725000
Ga1194  Ga  0.068763  0.075440  0.800000
Ga1195  Ga  0.068763  0.075440  0.875000
Ga1196  Ga  0.068763  0.075440  0.950000
Ga1197  Ga  0.068763  0.150881  0.050000
Ga1198  Ga  0.068763  0.150881  0.125000
Ga1199  Ga  0.068763  0.150881  0.200000
Ga1200  Ga  0.068763  0.150881  0.275000
Ga1201  Ga  0.068763  0.150881  0.350000
Ga1202  Ga  0.068763  0.150881  0.425000
Ga1203  Ga  0.068763  0.150881  0.500000
Ga1204  Ga  0.068763  0.150881  0.575000
Ga1205  Ga  0.068763  0.150881  0.650000
Ga1206  Ga  0.068763  0.150881  0.725000
Ga1207  Ga  0.068763  0.150881  0.800000
Ga1208  Ga  0.068763  0.150881  0.875000
Ga1209  Ga  0.068763  0.150881  0.950000
Ga1210  Ga  0.068763  0.226321  0.050000
Ga1211  Ga  0.068763  0.226321  0.125000
Ga1212  Ga  0.068763  0.226321  0.200000
Ga1213  Ga  0.068763  0.226321  0.275000
Ga1214  Ga  0.068763  0.226321  0.350000
Ga1215  Ga  0.068763  0.226321  0.425000
Ga1216  Ga  0.068763  0.226321  0.500000
Ga1217  Ga  0.068763  0.226321  0.575000
Ga1218  Ga  0.068763  0.226321  0.650000
Ga1219  Ga  0.068763  0.226321  0.725000
Ga1220  Ga  0.068763  0.226321  0.800000
Ga1221  Ga  0.068763  0.226321  0.875000
Ga1222  Ga  0.068763  0.226321  0.950000
Ga1223  Ga  0.068763  0.301762  0.050000
Ga1224  Ga  0.068763  0.301762  0.125000
Ga1225  Ga  0.068763  0.301762  0.200000
Ga1226  Ga  0.068763  0.301762  0.275000
Ga1227  Ga  0.068763  0.301762  0.350000
Ga1228  Ga  0.068763  0.301762  0.425000
Ga1229  Ga  0.068763  0.301762  0.500000
Ga1230  Ga  0.068763  0.301762  0.575000
Ga1231  Ga  0.068763  0.301762  0.650000
Ga1232  Ga  0.068763  0.301762  0.725000
Ga1233  Ga  0.068763  0.301762  0.800000
Ga1234  Ga  0.068763  0.301762  0.875000
Ga1235  Ga  0.068763  0.301762  0.950000
Ga1236  Ga  0.068763  0.377202  0.050000
Ga1237  Ga  0.068763  0.377202  0.125000
Ga1238  Ga  0.068763  0.377202  0.200000
Ga1239  Ga  0.068763  0.377202  0.275000
Ga1240  Ga  0.068763  0.377202  0.350000
Ga1241  Ga  0.068763  0.377202  0.425000
Ga1242  Ga  0.068763  0.377202  0.500000
Ga1243  Ga  0.068763  0.377202  0.575000
Ga1244  Ga  0.068763  0.377202  0.650000
Ga1245  Ga  0.068763  0.377202  0.725000
Ga1246  Ga  0.068763  0.377202  0.800000
Ga1247  Ga  0.068763  0.377202  0.875000
Ga1248  Ga  0.068763  0.377202  0.950000
Ga1249  Ga  0.068763  0.452643  0.050000
Ga1250  Ga  0.068763  0.452643  0.125000
Ga1251  Ga  0.068763  0.452643  0.200000
Ga1252  Ga  0.068763  0.452643  0.275000
Ga1253  Ga  0.068763  0.452643  0.350000
Ga1254  Ga  0.068763  0.452643  0.425000
Ga1255  Ga  0.068763  0.452643  0.500000
Ga1256  Ga  0.068763  0.452643  0.575000
Ga1257  Ga  0.068763  0.452643  0.650000
Ga1258  Ga  0.068763  0.452643  0.725000
Ga1259  Ga  0.068763  0.452643  0.800000
Ga1260  Ga  0.068763  0.452643  0.875000
Ga1261  Ga  0.068763  0.452643  0.950000
Ga1262  Ga  0.068763  0.528083  0.050000
Ga1263  Ga  0.068763  0.528083  0.125000
Ga1264  Ga  0.068763  0.528083  0.200000
Ga1265  Ga  0.068763  0.528083  0.275000
Ga1266  Ga  0.068763  0.528083  0.350000
Ga1267  Ga  0.068763  0.528083  0.425000
Ga1268  Ga  0.068763  0.528083  0.500000
Ga1269  Ga  0.068763  0.528083  0.575000
Ga1270  Ga  0.068763  0.528083  0.650000
Ga1271  Ga  0.068763  0.528083  0.725000
Ga1272  Ga  0.068763  0.528083  0.800000
Ga1273  Ga  0.068763  0.528083  0.875000
Ga1274  Ga  0.068763  0.528083  0.950000
Ga1275  Ga  0.068763  0.603523  0.050000
Ga1276  Ga  0.068763  0.603523  0.125000
Ga1277  Ga  0.068763  0.603523  0.200000
Ga1278  Ga  0.068763  0.603523  0.275000
Ga1279  Ga  0.068763  0.603523  0.350000
Ga1280  Ga  0.068763  0.603523  0.425000
Ga1281  Ga  0.068763  0.603523  0.500000
Ga1282  Ga  0.068763  0.603523  0.575000
Ga1283  Ga  0.068763  0.603523  0.650000
Ga1284  Ga  0.068763  0.603523  0.725000
Ga1285  Ga  0.068763  0.603523  0.800000
Ga1286  Ga  0.068763  0.603523  0.875000
Ga1287  Ga  0.068763  0.603523  0.950000
Ga1288  Ga  0.068763  0.678964  0.050000
Ga1289  Ga  0.068763  0.678964  0.125000
Ga1290  Ga  0.068763  0.678964  0.200000
Ga1291  Ga  0.068763  0.678964  0.275000
Ga1292  Ga  0.068763  0.678964  0.350000
Ga1293  Ga  0.068763  0.678964  0.425000
Ga1294  Ga  0.068763  0.678964  0.500000
Ga1295  Ga  0.068763  0.678964  0.575000
Ga1296  Ga  0.068763  0.678964  0.650000
Ga1297  Ga  0.068763  0.678964  0.725000
Ga1298  Ga  0.068763  0.678964  0.800000
Ga1299  Ga  0.068763  0.678964  0.875000
Ga1300  Ga  0.068763  0.678964  0.950000
Ga1301  Ga  0.068763  0.754404  0.050000
Ga1302  Ga  0.068763  0.754404  0.125000
Ga1303  Ga  0.068763  0.754404  0.200000
Ga1304  Ga  0.068763  0.754404  0.275000
Ga1305  Ga  0.068763  0.754404  0.350000
Ga1306  Ga  0.068763  0.754404  0.425000
Ga1307  Ga  0.068763  0.754404  0.500000
Ga1308  Ga  0.068763  0.754404  0.575000
Ga1309  Ga  0.068763  0.754404  0.650000
Ga1310  Ga  0.068763  0.754404  0.725000
Ga1311  Ga  0.068763  0.754404  0.800000
Ga1312  Ga  0.068763  0.754404  0.875000
Ga1313  Ga  0.068763  0.754404  0.950000
Ga1314  Ga  0.068763  0.829845  0.050000
Ga1315  Ga  0.068763  0.829845  0.125000
Ga1316  Ga  0.068763  0.829845  0.200000
Ga1317  Ga  0.068763  0.829845  0.275000
Ga1318  Ga  0.068763  0.829845  0.350000
Ga1319  Ga  0.068763  0.829845  0.425000
Ga1320  Ga  0.068763  0.829845  0.500000
Ga1321  Ga  0.068763  0.829845  0.575000
Ga1322  Ga  0.068763  0.829845  0.650000
Ga1323  Ga  0.068763  0.829845  0.725000
Ga1324  Ga  0.068763  0.829845  0.800000
Ga1325  Ga  0.068763  0.829845  0.875000
Ga1326  Ga  0.068763  0.829845  0.950000
Ga1327  Ga  0.206290  0.150881  0.050000
Ga1328  Ga  0.206290  0.150881  0.125000
Ga1329  Ga  0.206290  0.150881  0.200000
Ga1330  Ga  0.206290  0.150881  0.275000
Ga1331  Ga  0.206290  0.150881  0.350000
Ga1332  Ga  0.206290  0.150881  0.425000
Ga1333  Ga  0.206290  0.150881  0.500000
Ga1334  Ga  0.206290  0.150881  0.575000
Ga1335  Ga  0.206290  0.150881  0.650000
Ga1336  Ga  0.206290  0.150881  0.725000
Ga1337  Ga  0.206290  0.150881  0.800000
Ga1338  Ga  0.206290  0.150881  0.875000
Ga1339  Ga  0.206290  0.150881  0.950000
Ga1340  Ga  0.206290  0.226321  0.050000
Ga1341  Ga  0.206290  0.226321  0.125000
Ga1342  Ga  0.206290  0.226321  0.200000
Ga1343  Ga  0.206290  0.226321  0.275000
Ga1344  Ga  0.206290  0.226321  0.350000
Ga1345  Ga  0.206290  0.226321  0.425000
Ga1346  Ga  0.206290  0.226321  0.500000
Ga1347  Ga  0.206290  0.226321  0.575000
Ga1348  Ga  0.206290  0.226321  0.650000
Ga1349  Ga  0.206290  0.226321  0.725000
Ga1350  Ga  0.206290  0.226321  0.800000
Ga1351  Ga  0.206290  0.226321  0.875000
Ga1352  Ga  0.206290  0.226321  0.950000
Ga1353  Ga  0.206290  0.301762  0.050000
Ga1354  Ga  0.206290  0.301762  0.125000
Ga1355  Ga  0.206290  0.301762  0.200000
Ga1356  Ga  0.206290  0.301762  0.275000
Ga1357  Ga  0.206290  0.301762  0.350000
Ga1358  Ga  0.206290  0.301762  0.425000
Ga1359  Ga  0.206290  0.301762  0.500000
Ga1360  Ga  0.206290  0.301762  0.575000
Ga1361  Ga  0.206290  0.301762  0.650000
Ga1362  Ga  0.206290  0.301762  0.725000
Ga1363  Ga  0.206290  0.301762  0.800000
Ga1364  Ga  0.206290  0.301762  0.875000
Ga1365  Ga  0.206290  0.301762  0.950000
Ga1366  Ga  0.206290  0.377202  0.050000
Ga1367  Ga  0.206290  0.377202  0.125000
Ga1368  Ga  0.206290  0.377202  0.200000
Ga1369  Ga  0.206290  0.377202  0.275000
Ga1370  Ga  0.206290  0.377202  0.350000
Ga1371  Ga  0.206290  0.377202  0.425000
Ga1372  Ga  0.206290  0.377202  0.500000
Ga1373  Ga  0.206290  0.377202  0.575000
Ga1374  Ga  0.206290  0.377202  0.650000
Ga1375  Ga  0.206290  0.377202  0.725000
Ga1376  Ga  0.206290  0.377202  0.800000
Ga1377  Ga  0.206290  0.377202  0.875000
Ga1378  Ga  0.206290  0.377202  0.950000
Ga1379  Ga  0.206290  0.452643  0.050000
Ga1380  Ga  0.206290  0.452643  0.125000
Ga1381  Ga  0.206290  0.452643  0.200000
Ga1382  Ga  0.206290  0.452643  0.275000
Ga1383  Ga  0.206290  0.452643  0.350000
Ga1384  Ga  0.206290  0.452643  0.425000
Ga1385  Ga  0.206290  0.452643  0.500000
Ga1386  Ga  0.206290  0.452643  0.575000
Ga1387  Ga  0.206290  0.452643  0.650000
Ga1388  Ga  0.206290  0.452643  0.725000
Ga1389  Ga  0.206290  0.452643  0.800000
Ga1390  Ga  0.206290  0.452643  0.875000
Ga1391  Ga  0.206290  0.452643  0.950000
Ga1392  Ga  0.206290  0.528083  0.050000
Ga1393  Ga  0.206290  0.528083  0.125000
Ga1394  Ga  0.206290  0.528083  0.200000
Ga1395  Ga  0.206290  0.528083  0.275000
Ga1396  Ga  0.206290  0.528083  0.350000
Ga1397  Ga  0.206290  0.528083  0.425000
Ga1398  Ga  0.206290  0.528083  0.500000
Ga1399  Ga  0.206290  0.528083  0.575000
Ga1400  Ga  0.206290  0.528083  0.650000
Ga1401  Ga  0.206290  0.528083  0.725000
Ga1402  Ga  0.206290  0.528083  0.800000
Ga1403  Ga  0.206290  0.528083  0.875000
Ga1404  Ga  0.206290  0.528083  0.950000
Ga1405  Ga  0.206290  0.603523  0.050000
Ga1406  Ga  0.206290  0.603523  0.125000
Ga1407  Ga  0.206290  0.603523  0.200000
Ga1408  Ga  0.206290  0.603523  0.275000
Ga1409  Ga  0.206290  0.603523  0.350000
Ga1410  Ga  0.206290  0.603523  0.425000
Ga1411  Ga  0.206290  0.603523  0.500000
Ga1412  Ga  0.206290  0.603523  0.575000
Ga1413  Ga  0.206290  0.603523  0.650000
Ga1414  Ga  0.206290  0.603523  0.725000
Ga1415  Ga  0.206290  0.603523  0.800000
Ga1416  Ga  0.206290  0.603523  0.875000
Ga1417  Ga  0.206290  0.603523  0.950000
Ga1418  Ga  0.206290  0.678964  0.050000
Ga1419  Ga  0.206290  0.678964  0.125000
Ga1420  Ga  0.206290  0.678964  0.200000
Ga1421  Ga  0.206290  0.678964  0.275000
Ga1422  Ga  0.206290  0.678964  0.350000
Ga1423  Ga  0.206290  0.678964  0.425000
Ga1424  Ga  0.206290  0.678964  0.500000
Ga1425  Ga  0.206290  0.678964  0.575000
Ga1426  Ga  0.206290  0.678964  0.650000
Ga1427  Ga  0.206290  0.678964  0.725000
Ga1428  Ga  0.206290  0.678964  0.800000
Ga1429  Ga  0.206290  0.678964  0.875000
Ga1430  Ga  0.206290  0.678964  0.950000
Ga1431  Ga  0.206290  0.754404  0.050000
Ga1432  Ga  0.206290  0.754404  0.125000
Ga1433  Ga  0.206290  0.754404  0.200000
Ga1434  Ga  0.206290  0.754404  0.275000
Ga1435  Ga  0.206290  0.754404  0.350000
Ga1436  Ga  0.206290  0.754404  0.425000
Ga1437  Ga  0.206290  0.754404  0.500000
Ga1438  Ga  0.206290  0.754404  0.575000
Ga1439  Ga  0.206290  0.754404  0.650000
Ga1440  Ga  0.206290  0.754404  0.725000
Ga1441  Ga  0.206290  0.754404  0.800000
Ga1442  Ga  0.206290  0.754404  0.875000
Ga1443  Ga  0.206290  0.754404  0.950000
Ga1444  Ga  0.343817  0.226321  0.050000
Ga1445  Ga  0.343817  0.226321  0.125000
Ga1446  Ga  0.343817  0.226321  0.200000
Ga1447  Ga  0.343817  0.226321  0.275000
Ga1448  Ga  0.343817  0.226321  0.350000
Ga1449  Ga  0.343817  0.226321  0.425000
Ga1450  Ga  0.343817  0.226321  0.500000
Ga1451  Ga  0.343817  0.226321  0.575000
Ga1452  Ga  0.343817  0.226321  0.650000
Ga1453  Ga  0.343817  0.226321  0.725000
Ga1454  Ga  0.343817  0.226321  0.800000
Ga1455  Ga  0.343817  0.226321  0.875000
Ga1456  Ga  0.343817  0.226321  0.950000
Ga1457  Ga  0.343817  0.301762  0.050000
Ga1458  Ga  0.343817  0.301762  0.125000
Ga1459  Ga  0.343817  0.301762  0.200000
Ga1460  Ga  0.343817  0.301762  0.275000
Ga1461  Ga  0.343817  0.301762  0.350000
Ga1462  Ga  0.343817  0.301762  0.425000
Ga1463  Ga  0.343817  0.301762  0.500000
Ga1464  Ga  0.343817  0.301762  0.575000
Ga1465  Ga  0.343817  0.301762  0.650000
Ga1466  Ga  0.343817  0.301762  0.725000
Ga1467  Ga  0.343817  0.301762  0.800000
Ga1468  Ga  0.343817  0.301762  0.875000
Ga1469  Ga  0.343817  0.301762  0.950000
Ga1470  Ga  0.343817  0.377202  0.050000
Ga1471  Ga  0.343817  0.377202  0.125000
Ga1472  Ga  0.343817  0.377202  0.200000
Ga1473  Ga  0.343817  0.377202  0.275000
Ga1474  Ga  0.343817  0.377202  0.350000
Ga1475  Ga  0.343817  0.377202  0.425000
Ga1476  Ga  0.343817  0.377202  0.500000
Ga1477  Ga  0.343817  0.377202  0.575000
Ga1478  Ga  0.343817  0.377202  0.650000
Ga1479  Ga  0.343817  0.377202  0.725000
Ga1480  Ga  0.343817  0.377202  0.800000
Ga1481  Ga  0.343817  0.377202  0.875000
Ga1482  Ga  0.343817  0.377202  0.950000
Ga1483  Ga  0.343817  0.452643  0.050000
Ga1484  Ga  0.343817  0.452643  0.125000
Ga1485  Ga  0.343817  0.452643  0.200000
Ga1486  Ga  0.343817  0.452643  0.275000
Ga1487  Ga  0.343817  0.452643  0.350000
Ga1488  Ga  0.343817  0.452643  0.425000
Ga1489  Ga  0.343817  0.452643  0.500000
Ga1490  Ga  0.343817  0.452643  0.575000
Ga1491  Ga  0.343817  0.452643  0.650000
Ga1492  Ga  0.343817  0.452643  0.725000
Ga1493  Ga  0.343817  0.452643  0.800000
Ga1494  Ga  0.343817  0.452643  0.875000
Ga1495  Ga  0.343817  0.452643  0.950000
Ga1496  Ga  0.343817  0.528083  0.050000
Ga1497  Ga  0.343817  0.528083  0.125000
Ga1498  Ga  0.343817  0.528083  0.200000
Ga1499  Ga  0.343817  0.528083  0.275000
Ga1500  Ga  0.343817  0.528083  0.350000
Ga1501  Ga  0.343817  0.528083  0.425000
Ga1502  Ga  0.343817  0.528083  0.500000
Ga1503  Ga  0.343817  0.528083  0.575000
Ga1504  Ga  0.343817  0.528083  0.650000
Ga1505  Ga  0.343817  0.528083  0.725000
Ga1506  Ga  0.343817  0.528083  0.800000
Ga1507  Ga  0.343817  0.528083  0.875000
Ga1508  Ga  0.343817  0.528083  0.950000
Ga1509  Ga  0.343817  0.603523  0.050000
Ga1510  Ga  0.343817  0.603523  0.125000
Ga1511  Ga  0.343817  0.603523  0.200000
Ga1512  Ga  0.343817  0.603523  0.275000
Ga1513  Ga  0.343817  0.603523  0.350000
Ga1514  Ga  0.343817  0.603523  0.425000
Ga1515  Ga  0.343817  0.603523  0.500000
Ga1516  Ga  0.343817  0.603523  0.575000
Ga1517  Ga  0.343817  0.603523  0.650000
Ga1518  Ga  0.343817  0.603523  0.725000
Ga1519  Ga  0.343817  0.603523  0.800000
Ga1520  Ga  0.343817  0.603523  0.875000
Ga1521  Ga  0.343817  0.603523  0.950000
Ga1522  Ga  0.343817  0.678964  0.050000
Ga1523  Ga  0.343817  0.678964  0.125000
Ga1524  Ga  0.343817  0.678964  0.200000
Ga1525  Ga  0.343817  0.678964  0.275000
Ga1526  Ga  0.343817  0.678964  0.350000
Ga1527  Ga  0.343817  0.678964  0.425000
Ga1528  Ga  0.343817  0.678964  0.500000
Ga1529  Ga  0.343817  0.678964  0.575000
Ga1530  Ga  0.343817  0.678964  0.650000
Ga1531  Ga  0.343817  0.678964  0.725000
Ga1532  Ga  0.343817  0.678964  0.800000
Ga1533  Ga  0.343817  0.678964  0.875000
Ga1534  Ga  0.343817  0.678964  0.950000
Ga1535  Ga  0.481344  0.301762  0.050000
Ga1536  Ga  0.481344  0.301762  0.125000
Ga1537  Ga  0.481344  0.301762  0.200000
Ga1538  Ga  0.481344  0.301762  0.275000
Ga1539  Ga  0.481344  0.301762  0.350000
Ga1540  Ga  0.481344  0.301762  0.425000
Ga1541  Ga  0.481344  0.301762  0.500000
Ga1542  Ga  0.481344  0.301762  0.575000
Ga1543  Ga  0.481344  0.301762  0.650000
Ga1544  Ga  0.481344  0.301762  0.725000
Ga1545  Ga  0.481344  0.301762  0.800000
Ga1546  Ga  0.481344  0.301762  0.875000
Ga1547  Ga  0.481344  0.301762  0.950000
Ga1548  Ga  0.481344  0.377202  0.050000
Ga1549  Ga  0.481344  0.377202  0.125000
Ga1550  Ga  0.481344  0.377202  0.200000
Ga1551  Ga  0.481344  0.377202  0.275000
Ga1552  Ga  0.481344  0.377202  0.350000
Ga1553  Ga  0.481344  0.377202  0.425000
Ga1554  Ga  0.481344  0.377202  0.500000
Ga1555  Ga  0.481344  0.377202  0.575000
Ga1556  Ga  0.481344  0.377202  0.650000
Ga1557  Ga  0.481344  0.377202  0.725000
Ga1558  Ga  0.481344  0.377202  0.800000
Ga1559  Ga  0.481344  0.377202  0.875000
Ga1560  Ga  0.481344  0.377202  0.950000
Ga1561  Ga  0.481344  0.452643  0.050000
Ga1562  Ga  0.481344  0.452643  0.125000
Ga1563  Ga  0.481344  0.452643  0.200000
Ga1564  Ga  0.481344  0.452643  0.275000
Ga1565  Ga  0.481344  0.452643  0.350000
Ga1566  Ga  0.481344  0.452643  0.425000
Ga1567  Ga  0.481344  0.452643  0.500000
Ga1568  Ga  0.481344  0.452643  0.575000
Ga1569  Ga  0.481344  0.452643  0.650000
Ga1570  Ga  0.481344  0.452643  0.725000
Ga1571  Ga  0.481344  0.452643  0.800000
Ga1572  Ga  0.481344  0.452643  0.875000
Ga1573  Ga  0.481344  0.452643  0.950000
Ga1574  Ga  0.481344  0.528083  0.050000
Ga1575  Ga  0.481344  0.528083  0.125000
Ga1576  Ga  0.481344  0.528083  0.200000
Ga1577  Ga  0.481344  0.528083  0.275000
Ga1578  Ga  0.481344  0.528083  0.350000
Ga1579  Ga  0.481344  0.528083  0.425000
Ga1580  Ga  0.481344  0.528083  0.500000
Ga1581  Ga  0.481344  0.528083  0.575000
Ga1582  Ga  0.481344  0.528083  0.650000
Ga1583  Ga  0.481344  0.528083  0.725000
Ga1584  Ga  0.481344  0.528083  0.800000
Ga1585  Ga  0.481344  0.528083  0.875000
Ga1586  Ga  0.481344  0.528083  0.950000
Ga1587  Ga  0.481344  0.603523  0.050000
Ga1588  Ga  0.481344  0.603523  0.125000
Ga1589  Ga  0.481344  0.603523  0.200000
Ga1590  Ga  0.481344  0.603523  0.275000
Ga1591  Ga  0.481344  0.603523  0.350000
Ga1592  Ga  0.481344  0.603523  0.425000
Ga1593  Ga  0.481344  0.603523  0.500000
Ga1594  Ga  0.481344  0.603523  0.575000
Ga1595  Ga  0.481344  0.603523  0.650000
Ga1596  Ga  0.481344  0.603523  0.725000
Ga1597  Ga  0.481344  0.603523  0.800000
Ga1598  Ga  0.481344  0.603523  0.875000
Ga1599  Ga  0.481344  0.603523  0.950000
Ga1600  Ga  0.618871  0.377202  0.050000
Ga1601  Ga  0.618871  0.377202  0.125000
Ga1602  Ga  0.618871  0.377202  0.200000
Ga1603  Ga  0.618871  0.377202  0.275000
Ga1604  Ga  0.618871  0.377202  0.350000
Ga1605  Ga  0.618871  0.377202  0.425000
Ga1606  Ga  0.618871  0.377202  0.500000
Ga1607  Ga  0.618871  0.377202  0.575000
Ga1608  Ga  0.618871  0.377202  0.650000
Ga1609  Ga  0.618871  0.377202  0.725000
Ga1610  Ga  0.618871  0.377202  0.800000
Ga1611  Ga  0.618871  0.377202  0.875000
Ga1612  Ga  0.618871  0.377202  0.950000
Ga1613  Ga  0.618871  0.452643  0.050000
Ga1614  Ga  0.618871  0.452643  0.125000
Ga1615  Ga  0.618871  0.452643  0.200000
Ga1616  Ga  0.618871  0.452643  0.275000
Ga1617  Ga  0.618871  0.452643  0.350000
Ga1618  Ga  0.618871  0.452643  0.425000
Ga1619  Ga  0.618871  0.452643  0.500000
Ga1620  Ga  0.618871  0.452643  0.575000
Ga1621  Ga  0.618871  0.452643  0.650000
Ga1622  Ga  0.618871  0.452643  0.725000
Ga1623  Ga  0.618871  0.452643  0.800000
Ga1624  Ga  0.618871  0.452643  0.875000
Ga1625  Ga  0.618871  0.452643  0.950000
Ga1626  Ga  0.618871  0.528083  0.050000
Ga1627  Ga  0.618871  0.528083  0.125000
Ga1628  Ga  0.618871  0.528083  0.200000
Ga1629  Ga  0.618871  0.528083  0.275000
Ga1630  Ga  0.618871  0.528083  0.350000
Ga1631  Ga  0.618871  0.528083  0.425000
Ga1632  Ga  0.618871  0.528083  0.500000
Ga1633  Ga  0.618871  0.528083  0.575000
Ga1634  Ga  0.618871  0.528083  0.650000
Ga1635  Ga  0.618871  0.528083  0.725000
Ga1636  Ga  0.618871  0.528083  0.800000
Ga1637  Ga  0.618871  0.528083  0.875000
Ga1638  Ga  0.618871  0.528083  0.950000
Ga1639  Ga  0.756398  0.452643  0.050000
Ga1640  Ga  0.756398  0.452643  0.125000
Ga1641  Ga  0.756398  0.452643  0.200000
Ga1642  Ga  0.756398  0.452643  0.275000
Ga1643  Ga  0.756398  0.452643  0.350000
Ga1644  Ga  0.756398  0.452643  0.425000
Ga1645  Ga  0.756398  0.452643  0.500000
Ga1646  Ga  0.756398  0.452643  0.575000
Ga1647  Ga  0.756398  0.452643  0.650000
Ga1648  Ga  0.756398  0.452643  0.725000
Ga1649  Ga  0.756398  0.452643  0.800000
Ga1650  Ga  0.756398  0.452643  0.875000
Ga1651  Ga  0.756398  0.452643  0.950000
Ga1652  Ga  0.068763  0.037720  0.012500
Ga1653  Ga  0.068763  0.037720  0.087500
Ga1654  Ga  0.068763  0.037720  0.162500
Ga1655  Ga  0.068763  0.037720  0.237500
Ga1656  Ga  0.068763  0.037720  0.312500
Ga1657  Ga  0.068763  0.037720  0.387500
Ga1658  Ga  0.068763  0.037720  0.462500
Ga1659  Ga  0.068763  0.037720  0.537500
Ga1660  Ga  0.068763  0.037720  0.612500
Ga1661  Ga  0.068763  0.037720  0.687500
Ga1662  Ga  0.068763  0.037720  0.762500
Ga1663  Ga  0.068763  0.037720  0.837500
Ga1664  Ga  0.068763  0.037720  0.912500
Ga1665  Ga  0.068763  0.113161  0.012500
Ga1666  Ga  0.068763  0.113161  0.087500
Ga1667  Ga  0.068763  0.113161  0.162500
Ga1668  Ga  0.068763  0.113161  0.237500
Ga1669  Ga  0.068763  0.113161  0.312500
Ga1670  Ga  0.068763  0.113161  0.387500
Ga1671  Ga  0.068763  0.113161  0.462500
Ga1672  Ga  0.068763  0.113161  0.537500
Ga1673  Ga  0.068763  0.113161  0.612500
Ga1674  Ga  0.068763  0.113161  0.687500
Ga1675  Ga  0.068763  0.113161  0.762500
Ga1676  Ga  0.068763  0.113161  0.837500
Ga1677  Ga  0.068763  0.113161  0.912500
Ga1678  Ga  0.068763  0.188601  0.012500
Ga1679  Ga  0.068763  0.188601  0.087500
Ga1680  Ga  0.068763  0.188601  0.162500
Ga1681  Ga  0.068763  0.188601  0.237500
Ga1682  Ga  0.068763  0.188601  0.312500
Ga1683  Ga  0.068763  0.188601  0.387500
Ga1684  Ga  0.068763  0.188601  0.462500
Ga1685  Ga  0.068763  0.188601  0.537500
Ga1686  Ga  0.068763  0.188601  0.612500
Ga1687  Ga  0.068763  0.188601  0.687500
Ga1688  Ga  0.068763  0.188601  0.762500
Ga1689  Ga  0.068763  0.188601  0.837500
Ga1690  Ga  0.068763  0.188601  0.912500
Ga1691  Ga  0.068763  0.264041  0.012500
Ga1692  Ga  0.068763  0.264041  0.087500
Ga1693  Ga  0.068763  0.264041  0.162500
Ga1694  Ga  0.068763  0.264041  0.237500
Ga1695  Ga  0.068763  0.264041  0.312500
Ga1696  Ga  0.068763  0.264041  0.387500
Ga1697  Ga  0.068763  0.264041  0.462500
Ga1698  Ga  0.068763  0.264041  0.537500
Ga1699  Ga  0.068763  0.264041  0.612500
Ga1700  Ga  0.068763  0.264041  0.687500
Ga1701  Ga  0.068763  0.264041  0.762500
Ga1702  Ga  0.068763  0.264041  0.837500
Ga1703  Ga  0.068763  0.264041  0.912500
Ga1704  Ga  0.068763  0.339482  0.012500
Ga1705  Ga  0.068763  0.339482  0.087500
Ga1706  Ga  0.068763  0.339482  0.162500
Ga1707  Ga  0.068763  0.339482  0.237500
Ga1708  Ga  0.068763  0.339482  0.312500
Ga1709  Ga  0.068763  0.339482  0.387500
Ga1710  Ga  0.068763  0.339482  0.462500
Ga1711  Ga  0.068763  0.339482  0.537500
Ga1712  Ga  0.068763  0.339482  0.612500
Ga1713  Ga  0.068763  0.339482  0.687500
Ga1714  Ga  0.068763  0.339482  0.762500
Ga1715  Ga  0.068763  0.339482  0.837500
Ga1716  Ga  0.068763  0.339482  0.912500
Ga1717  Ga  0.068763  0.414922  0.012500
Ga1718  Ga  0.068763  0.414922  0.087500
Ga1719  Ga  0.068763  0.414922  0.162500
Ga1720  Ga  0.068763  0.414922  0.237500
Ga1721  Ga  0.068763  0.414922  0.312500
Ga1722  Ga  0.068763  0.414922  0.387500
Ga1723  Ga  0.068763  0.414922  0.462500
Ga1724  Ga  0.068763  0.414922  0.537500
Ga1725  Ga  0.068763  0.414922  0.612500
Ga1726  Ga  0.068763  0.414922  0.687500
Ga1727  Ga  0.068763  0.414922  0.762500
Ga1728  Ga  0.068763  0.414922  0.837500
Ga1729  Ga  0.068763  0.414922  0.912500
Ga1730  Ga  0.068763  0.490363  0.012500
Ga1731  Ga  0.068763  0.490363  0.087500
Ga1732  Ga  0.068763  0.490363  0.162500
Ga1733  Ga  0.068763  0.490363  0.237500
Ga1734  Ga  0.068763  0.490363  0.312500
Ga1735  Ga  0.068763  0.490363  0.387500
Ga1736  Ga  0.068763  0.490363  0.462500
Ga1737  Ga  0.068763  0.490363  0.537500
Ga1738  Ga  0.068763  0.490363  0.612500
Ga1739  Ga  0.068763  0.490363  0.687500
Ga1740  Ga  0.068763  0.490363  0.762500
Ga1741  Ga  0.068763  0.490363  0.837500
Ga1742  Ga  0.068763  0.490363  0.912500
Ga1743  Ga  0.068763  0.565803  0.012500
Ga1744  Ga  0.068763  0.565803  0.087500
Ga1745  Ga  0.068763  0.565803  0.162500
Ga1746  Ga  0.068763  0.565803  0.237500
Ga1747  Ga  0.068763  0.565803  0.312500
Ga1748  Ga  0.068763  0.565803  0.387500
Ga1749  Ga  0.068763  0.565803  0.462500
Ga1750  Ga  0.068763  0.565803  0.537500
Ga1751  Ga  0.068763  0.565803  0.612500
Ga1752  Ga  0.068763  0.565803  0.687500
Ga1753  Ga  0.068763  0.565803  0.762500
Ga1754  Ga  0.068763  0.565803  0.837500
Ga1755  Ga  0.068763  0.565803  0.912500
Ga1756  Ga  0.068763  0.641244  0.012500
Ga1757  Ga  0.068763  0.641244  0.087500
Ga1758  Ga  0.068763  0.641244  0.162500
Ga1759  Ga  0.068763  0.641244  0.237500
Ga1760  Ga  0.068763  0.641244  0.312500
Ga1761  Ga  0.068763  0.641244  0.387500
Ga1762  Ga  0.068763  0.641244  0.462500
Ga1763  Ga  0.068763  0.641244  0.537500
Ga1764  Ga  0.068763  0.641244  0.612500
Ga1765  Ga  0.068763  0.641244  0.687500
Ga1766  Ga  0.068763  0.641244  0.762500
Ga1767  Ga  0.068763  0.641244  0.837500
Ga1768  Ga  0.068763  0.641244  0.912500
Ga1769  Ga  0.068763  0.716684  0.012500
Ga1770  Ga  0.068763  0.716684  0.087500
Ga1771  Ga  0.068763  0.716684  0.162500
Ga1772  Ga  0.068763  0.716684  0.237500
Ga1773  Ga  0.068763  0.716684  0.312500
Ga1774  Ga  0.068763  0.716684  0.387500
Ga1775  Ga  0.068763  0.716684  0.462500
Ga1776  Ga  0.068763  0.716684  0.537500
Ga1777  Ga  0.068763  0.716684  0.612500
Ga1778  Ga  0.068763  0.716684  0.687500
Ga1779  Ga  0.068763  0.716684  0.762500
Ga1780  Ga  0.068763  0.716684  0.837500
Ga1781  Ga  0.068763  0.716684  0.912500
Ga1782  Ga  0.068763  0.792124  0.012500
Ga1783  Ga  0.068763  0.792124  0.087500
Ga1784  Ga  0.068763  0.792124  0.162500
Ga1785  Ga  0.068763  0.792124  0.237500
Ga1786  Ga  0.068763  0.792124  0.312500
Ga1787  Ga  0.068763  0.792124  0.387500
Ga1788  Ga  0.068763  0.792124  0.462500
Ga1789  Ga  0.068763  0.792124  0.537500
Ga1790  Ga  0.068763  0.792124  0.612500
Ga1791  Ga  0.068763  0.792124  0.687500
Ga1792  Ga  0.068763  0.792124  0.762500
Ga1793  Ga  0.068763  0.792124  0.837500
Ga1794  Ga  0.068763  0.792124  0.912500
Ga1795  Ga  0.068763  0.867565  0.012500
Ga1796  Ga  0.068763  0.867565  0.087500
Ga1797  Ga  0.068763  0.867565  0.162500
Ga1798  Ga  0.068763  0.867565  0.237500
Ga1799  Ga  0.068763  0.867565  0.312500
Ga1800  Ga  0.068763  0.867565  0.387500
Ga1801  Ga  0.068763  0.867565  0.462500
Ga1802  Ga  0.068763  0.867565  0.537500
Ga1803  Ga  0.068763  0.867565  0.612500
Ga1804  Ga  0.068763  0.867565  0.687500
Ga1805  Ga  0.068763  0.867565  0.762500
Ga1806  Ga  0.068763  0.867565  0.837500
Ga1807  Ga  0.068763  0.867565  0.912500
Ga1808  Ga  0.206290  0.113161  0.012500
Ga1809  Ga  0.206290  0.113161  0.087500
Ga1810  Ga  0.206290  0.113161  0.162500
Ga1811  Ga  0.206290  0.113161  0.237500
Ga1812  Ga  0.206290  0.113161  0.312500
Ga1813  Ga  0.206290  0.113161  0.387500
Ga1814  Ga  0.206290  0.113161  0.462500
Ga1815  Ga  0.206290  0.113161  0.537500
Ga1816  Ga  0.206290  0.113161  0.612500
Ga1817  Ga  0.206290  0.113161  0.687500
Ga1818  Ga  0.206290  0.113161  0.762500
Ga1819  Ga  0.206290  0.113161  0.837500
Ga1820  Ga  0.206290  0.113161  0.912500
Ga1821  Ga  0.206290  0.188601  0.012500
Ga1822  Ga  0.206290  0.188601  0.087500
Ga1823  Ga  0.206290  0.188601  0.162500
Ga1824  Ga  0.206290  0.188601  0.237500
Ga1825  Ga  0.206290  0.188601  0.312500
Ga1826  Ga  0.206290  0.188601  0.387500
Ga1827  Ga  0.206290  0.188601  0.462500
Ga1828  Ga  0.206290  0.188601  0.537500
Ga1829  Ga  0.206290  0.188601  0.612500
Ga1830  Ga  0.206290  0.188601  0.687500
Ga1831  Ga  0.206290  0.188601  0.762500
Ga1832  Ga  0.206290  0.188601  0.837500
Ga1833  Ga  0.206290  0.188601  0.912500
Ga1834  Ga  0.206290  0.264041  0.012500
Ga1835  Ga  0.206290  0.264041  0.087500
Ga1836  Ga  0.206290  0.264041  0.162500
Ga1837  Ga  0.206290  0.264041  0.237500
Ga1838  Ga  0.206290  0.264041  0.312500
Ga1839  Ga  0.206290  0.264041  0.387500
Ga1840  Ga  0.206290  0.264041  0.462500
Ga1841  Ga  0.206290  0.264041  0.537500
Ga1842  Ga  0.206290  0.264041  0.612500
Ga1843  Ga  0.206290  0.264041  0.687500
Ga1844  Ga  0.206290  0.264041  0.762500
Ga1845  Ga  0.206290  0.264041  0.837500
Ga1846  Ga  0.206290  0.264041  0.912500
Ga1847  Ga  0.206290  0.339482  0.012500
Ga1848  Ga  0.206290  0.339482  0.087500
Ga1849  Ga  0.206290  0.339482  0.162500
Ga1850  Ga  0.206290  0.339482  0.237500
Ga1851  Ga  0.206290  0.339482  0.312500
Ga1852  Ga  0.206290  0.339482  0.387500
Ga1853  Ga  0.206290  0.339482  0.462500
Ga1854  Ga  0.206290  0.339482  0.537500
Ga1855  Ga  0.206290  0.339482  0.612500
Ga1856  Ga  0.206290  0.339482  0.687500
Ga1857  Ga  0.206290  0.339482  0.762500
Ga1858  Ga  0.206290  0.339482  0.837500
Ga1859  Ga  0.206290  0.339482  0.912500
Ga1860  Ga  0.206290  0.414922  0.012500
Ga1861  Ga  0.206290  0.414922  0.087500
Ga1862  Ga  0.206290  0.414922  0.162500
Ga1863  Ga  0.206290  0.414922  0.237500
Ga1864  Ga  0.206290  0.414922  0.312500
Ga1865  Ga  0.206290  0.414922  0.387500
Ga1866  Ga  0.206290  0.414922  0.462500
Ga1867  Ga  0.206290  0.414922  0.537500
Ga1868  Ga  0.206290  0.414922  0.612500
Ga1869  Ga  0.206290  0.414922  0.687500
Ga1870  Ga  0.206290  0.414922  0.762500
Ga1871  Ga  0.206290  0.414922  0.837500
Ga1872  Ga  0.206290  0.414922  0.912500
Ga1873  Ga  0.206290  0.490363  0.012500
Ga1874  Ga  0.206290  0.490363  0.087500
Ga1875  Ga  0.206290  0.490363  0.162500
Ga1876  Ga  0.206290  0.490363  0.237500
Ga1877  Ga  0.206290  0.490363  0.312500
Ga1878  Ga  0.206290  0.490363  0.387500
Ga1879  Ga  0.206290  0.490363  0.462500
Ga1880  Ga  0.206290  0.490363  0.537500
Ga1881  Ga  0.206290  0.490363  0.612500
Ga1882  Ga  0.206290  0.490363  0.687500
Ga1883  Ga  0.206290  0.490363  0.762500
Ga1884  Ga  0.206290  0.490363  0.837500
Ga1885  Ga  0.206290  0.490363  0.912500
Ga1886  Ga  0.206290  0.565803  0.012500
Ga1887  Ga  0.206290  0.565803  0.087500
Ga1888  Ga  0.206290  0.565803  0.162500
Ga1889  Ga  0.206290  0.565803  0.237500
Ga1890  Ga  0.206290  0.565803  0.312500
Ga1891  Ga  0.206290  0.565803  0.387500
Ga1892  Ga  0.206290  0.565803  0.462500
Ga1893  Ga  0.206290  0.565803  0.537500
Ga1894  Ga  0.206290  0.565803  0.612500
Ga1895  Ga  0.206290  0.565803  0.687500
Ga1896  Ga  0.206290  0.565803  0.762500
Ga1897  Ga  0.206290  0.565803  0.837500
Ga1898  Ga  0.206290  0.565803  0.912500
Ga1899  Ga  0.206290  0.641244  0.012500
Ga1900  Ga  0.206290  0.641244  0.087500
Ga1901  Ga  0.206290  0.641244  0.162500
Ga1902  Ga  0.206290  0.641244  0.237500
Ga1903  Ga  0.206290  0.641244  0.312500
Ga1904  Ga  0.206290  0.641244  0.387500
Ga1905  Ga  0.206290  0.641244  0.462500
Ga1906  Ga  0.206290  0.641244  0.537500
Ga1907  Ga  0.206290  0.641244  0.612500
Ga1908  Ga  0.206290  0.641244  0.687500
Ga1909  Ga  0.206290  0.641244  0.762500
Ga1910  Ga  0.206290  0.641244  0.837500
Ga1911  Ga  0.206290  0.641244  0.912500
Ga1912  Ga  0.206290  0.716684  0.012500
Ga1913  Ga  0.206290  0.716684  0.087500
Ga1914  Ga  0.206290  0.716684  0.162500
Ga1915  Ga  0.206290  0.716684  0.237500
Ga1916  Ga  0.206290  0.716684  0.312500
Ga1917  Ga  0.206290  0.716684  0.387500
Ga1918  Ga  0.206290  0.716684  0.462500
Ga1919  Ga  0.206290  0.716684  0.537500
Ga1920  Ga  0.206290  0.716684  0.612500
Ga1921  Ga  0.206290  0.716684  0.687500
Ga1922  Ga  0.206290  0.716684  0.762500
Ga1923  Ga  0.206290  0.716684  0.837500
Ga1924  Ga  0.206290  0.716684  0.912500
Ga1925  Ga  0.206290  0.792124  0.012500
Ga1926  Ga  0.206290  0.792124  0.087500
Ga1927  Ga  0.206290  0.792124  0.162500
Ga1928  Ga  0.206290  0.792124  0.237500
Ga1929  Ga  0.206290  0.792124  0.312500
Ga1930  Ga  0.206290  0.792124  0.387500
Ga1931  Ga  0.206290  0.792124  0.462500
Ga1932  Ga  0.206290  0.792124  0.537500
Ga1933  Ga  0.206290  0.792124  0.612500
Ga1934  Ga  0.206290  0.792124  0.687500
Ga1935  Ga  0.206290  0.792124  0.762500
Ga1936  Ga  0.206290  0.792124  0.837500
Ga1937  Ga  0.206290  0.792124  0.912500
Ga1938  Ga  0.343817  0.188601  0.012500
Ga1939  Ga  0.343817  0.188601  0.087500
Ga1940  Ga  0.343817  0.188601  0.162500
Ga1941  Ga  0.343817  0.188601  0.237500
Ga1942  Ga  0.343817  0.188601  0.312500
Ga1943  Ga  0.343817  0.188601  0.387500
Ga1944  Ga  0.343817  0.188601  0.462500
Ga1945  Ga  0.343817  0.188601  0.537500
Ga1946  Ga  0.343817  0.188601  0.612500
Ga1947  Ga  0.343817  0.188601  0.687500
Ga1948  Ga  0.343817  0.188601  0.762500
Ga1949  Ga  0.343817  0.188601  0.837500
Ga1950  Ga  0.343817  0.188601  0.912500
Ga1951  Ga  0.343817  0.264041  0.012500
Ga1952  Ga  0.343817  0.264041  0.087500
Ga1953  Ga  0.343817  0.264041  0.162500
Ga1954  Ga  0.343817  0.264041  0.237500
Ga1955  Ga  0.343817  0.264041  0.312500
Ga1956  Ga  0.343817  0.264041  0.387500
Ga1957  Ga  0.343817  0.264041  0.462500
Ga1958  Ga  0.343817  0.264041  0.537500
Ga1959  Ga  0.343817  0.264041  0.612500
Ga1960  Ga  0.343817  0.264041  0.687500
Ga1961  Ga  0.343817  0.264041  0.762500
Ga1962  Ga  0.343817  0.264041  0.837500
Ga1963  Ga  0.343817  0.264041  0.912500
Ga1964  Ga  0.343817  0.339482  0.012500
Ga1965  Ga  0.343817  0.339482  0.087500
Ga1966  Ga  0.343817  0.339482  0.162500
Ga1967  Ga  0.343817  0.339482  0.237500
Ga1968  Ga  0.343817  0.339482  0.312500
Ga1969  Ga  0.343817  0.339482  0.387500
Ga1970  Ga  0.343817  0.339482  0.462500
Ga1971  Ga  0.343817  0.339482  0.537500
Ga1972  Ga  0.343817  0.339482  0.612500
Ga1973  Ga  0.343817  0.339482  0.687500
Ga1974  Ga  0.343817  0.339482  0.762500
Ga1975  Ga  0.343817  0.339482  0.837500
Ga1976  Ga  0.343817  0.339482  0.912500
Ga1977  Ga  0.343817  0.414922  0.012500
Ga1978  Ga  0.343817  0.414922  0.087500
Ga1979  Ga  0.343817  0.414922  0.162500
Ga1980  Ga  0.343817  0.414922  0.237500
Ga1981  Ga  0.343817  0.414922  0.312500
Ga1982  Ga  0.343817  0.414922  0.387500
Ga1983  Ga  0.343817  0.414922  0.462500
Ga1984  Ga  0.343817  0.414922  0.537500
Ga1985  Ga  0.343817  0.414922  0.612500
Ga1986  Ga  0.343817  0.414922  0.687500
Ga1987  Ga  0.343817  0.414922  0.762500
Ga1988  Ga  0.343817  0.414922  0.837500
Ga1989  Ga  0.343817  0.414922  0.912500
Ga1990  Ga  0.343817  0.490363  0.012500
Ga1991  Ga  0.343817  0.490363  0.087500
Ga1992  Ga  0.343817  0.490363  0.162500
Ga1993  Ga  0.343817  0.490363  0.237500
Ga1994  Ga  0.343817  0.490363  0.312500
Ga1995  Ga  0.343817  0.490363  0.387500
Ga1996  Ga  0.343817  0.490363  0.462500
Ga1997  Ga  0.343817  0.490363  0.537500
Ga1998  Ga  0.343817  0.490363  0.612500
Ga1999  Ga  0.343817  0.490363  0.687500
Ga2000  Ga  0.343817  0.490363  0.762500
Ga2001  Ga  0.343817  0.490363  0.837500
Ga2002  Ga  0.343817  0.490363  0.912500
Ga2003  Ga  0.343817  0.565803  0.012500
Ga2004  Ga  0.343817  0.565803  0.087500
Ga2005  Ga  0.343817  0.565803  0.162500
Ga2006  Ga  0.343817  0.565803  0.237500
Ga2007  Ga  0.343817  0.565803  0.312500
Ga2008  Ga  0.343817  0.565803  0.387500
Ga2009  Ga  0.343817  0.565803  0.462500
Ga2010  Ga  0.343817  0.565803  0.537500
Ga2011  Ga  0.343817  0.565803  0.612500
Ga2012  Ga  0.343817  0.565803  0.687500
Ga2013  Ga  0.343817  0.565803  0.762500
Ga2014  Ga  0.343817  0.565803  0.837500
Ga2015  Ga  0.343817  0.565803  0.912500
Ga2016  Ga  0.343817  0.641244  0.012500
Ga2017  Ga  0.343817  0.641244  0.087500
Ga2018  Ga  0.343817  0.641244  0.162500
Ga2019  Ga  0.343817  0.641244  0.237500
Ga2020  Ga  0.343817  0.641244  0.312500
Ga2021  Ga  0.343817  0.641244  0.387500
Ga2022  Ga  0.343817  0.641244  0.462500
Ga2023  Ga  0.343817  0.641244  0.537500
Ga2024  Ga  0.343817  0.641244  0.612500
Ga2025  Ga  0.343817  0.641244  0.687500
Ga2026  Ga  0.343817  0.641244  0.762500
Ga2027  Ga  0.343817  0.641244  0.837500
Ga2028  Ga  0.343817  0.641244  0.912500
Ga2029  Ga  0.343817  0.716684  0.012500
Ga2030  Ga  0.343817  0.716684  0.087500
Ga2031  Ga  0.343817  0.716684  0.162500
Ga2032  Ga  0.343817  0.716684  0.237500
Ga2033  Ga  0.343817  0.716684  0.312500
Ga2034  Ga  0.343817  0.716684  0.387500
Ga2035  Ga  0.343817  0.716684  0.462500
Ga2036  Ga  0.343817  0.716684  0.537500
Ga2037  Ga  0.343817  0.716684  0.612500
Ga2038  Ga  0.343817  0.716684  0.687500
Ga2039  Ga  0.343817  0.716684  0.762500
Ga2040  Ga  0.343817  0.716684  0.837500
Ga2041  Ga  0.343817  0.716684  0.912500
Ga2042  Ga  0.481344  0.264041  0.012500
Ga2043  Ga  0.481344  0.264041  0.087500
Ga2044  Ga  0.481344  0.264041  0.162500
Ga2045  Ga  0.481344  0.264041  0.237500
Ga2046  Ga  0.481344  0.264041  0.312500
Ga2047  Ga  0.481344  0.264041  0.387500
Ga2048  Ga  0.481344  0.264041  0.462500
Ga2049  Ga  0.481344  0.264041  0.537500
Ga2050  Ga  0.481344  0.264041  0.612500
Ga2051  Ga  0.481344  0.264041  0.687500
Ga2052  Ga  0.481344  0.264041  0.762500
Ga2053  Ga  0.481344  0.264041  0.837500
Ga2054  Ga  0.481344  0.264041  0.912500
Ga2055  Ga  0.481344  0.339482  0.012500
Ga2056  Ga  0.481344  0.339482  0.087500
Ga2057  Ga  0.481344  0.339482  0.162500
Ga2058  Ga  0.481344  0.339482  0.237500
Ga2059  Ga  0.481344  0.339482  0.312500
Ga2060  Ga  0.481344  0.339482  0.387500
Ga2061  Ga  0.481344  0.339482  0.462500
Ga2062  Ga  0.481344  0.339482  0.537500
Ga2063  Ga  0.481344  0.339482  0.612500
Ga2064  Ga  0.481344  0.339482  0.687500
Ga2065  Ga  0.481344  0.339482  0.762500
Ga2066  Ga  0.481344  0.339482  0.837500
Ga2067  Ga  0.481344  0.339482  0.912500
Ga2068  Ga  0.481344  0.414922  0.012500
Ga2069  Ga  0.481344  0.414922  0.087500
Ga2070  Ga  0.481344  0.414922  0.162500
Ga2071  Ga  0.481344  0.414922  0.237500
Ga2072  Ga  0.481344  0.414922  0.312500
Ga2073  Ga  0.481344  0.414922  0.387500
Ga2074  Ga  0.481344  0.414922  0.462500
Ga2075  Ga  0.481344  0.414922  0.537500
Ga2076  Ga  0.481344  0.414922  0.612500
Ga2077  Ga  0.481344  0.414922  0.687500
Ga2078  Ga  0.481344  0.414922  0.762500
Ga2079  Ga  0.481344  0.414922  0.837500
Ga2080  Ga  0.481344  0.414922  0.912500
Ga2081  Ga  0.481344  0.490363  0.012500
Ga2082  Ga  0.481344  0.490363  0.087500
Ga2083  Ga  0.481344  0.490363  0.162500
Ga2084  Ga  0.481344  0.490363  0.237500
Ga2085  Ga  0.481344  0.490363  0.312500
Ga2086  Ga  0.481344  0.490363  0.387500
Ga2087  Ga  0.481344  0.490363  0.462500
Ga2088  Ga  0.481344  0.490363  0.537500
Ga2089  Ga  0.481344  0.490363  0.612500
Ga2090  Ga  0.481344  0.490363  0.687500
Ga2091  Ga  0.481344  0.490363  0.762500
Ga2092  Ga  0.481344  0.490363  0.837500
Ga2093  Ga  0.481344  0.490363  0.912500
Ga2094  Ga  0.481344  0.565803  0.012500
Ga2095  Ga  0.481344  0.565803  0.087500
Ga2096  Ga  0.481344  0.565803  0.162500
Ga2097  Ga  0.481344  0.565803  0.237500
Ga2098  Ga  0.481344  0.565803  0.312500
Ga2099  Ga  0.481344  0.565803  0.387500
Ga2100  Ga  0.481344  0.565803  0.462500
Ga2101  Ga  0.481344  0.565803  0.537500
Ga2102  Ga  0.481344  0.565803  0.612500
Ga2103  Ga  0.481344  0.565803  0.687500
Ga2104  Ga  0.481344  0.565803  0.762500
Ga2105  Ga  0.481344  0.565803  0.837500
Ga2106  Ga  0.481344  0.565803  0.912500
Ga2107  Ga  0.481344  0.641244  0.012500
Ga2108  Ga  0.481344  0.641244  0.087500
Ga2109  Ga  0.481344  0.641244  0.162500
Ga2110  Ga  0.481344  0.641244  0.237500
Ga2111  Ga  0.481344  0.641244  0.312500
Ga2112  Ga  0.481344  0.641244  0.387500
Ga2113  Ga  0.481344  0.641244  0.462500
Ga2114  Ga  0.481344  0.641244  0.537500
Ga2115  Ga  0.481344  0.641244  0.612500
Ga2116  Ga  0.481344  0.641244  0.687500
Ga2117  Ga  0.481344  0.641244  0.762500
Ga2118  Ga  0.481344  0.641244  0.837500
Ga2119  Ga  0.481344  0.641244  0.912500
Ga2120  Ga  0.618871  0.339482  0.012500
Ga2121  Ga  0.618871  0.339482  0.087500
Ga2122  Ga  0.618871  0.339482  0.162500
Ga2123  Ga  0.618871  0.339482  0.237500
Ga2124  Ga  0.618871  0.339482  0.312500
Ga2125  Ga  0.618871  0.339482  0.387500
Ga2126  Ga  0.618871  0.339482  0.462500
Ga2127  Ga  0.618871  0.339482  0.537500
Ga2128  Ga  0.618871  0.339482  0.612500
Ga2129  Ga  0.618871  0.339482  0.687500
Ga2130  Ga  0.618871  0.339482  0.762500
Ga2131  Ga  0.618871  0.339482  0.837500
Ga2132  Ga  0.618871  0.339482  0.912500
Ga2133  Ga  0.618871  0.414922  0.012500
Ga2134  Ga  0.618871  0.414922  0.087500
Ga2135  Ga  0.618871  0.414922  0.162500
Ga2136  Ga  0.618871  0.414922  0.237500
Ga2137  Ga  0.618871  0.414922  0.312500
Ga2138  Ga  0.618871  0.414922  0.387500
Ga2139  Ga  0.618871  0.414922  0.462500
Ga2140  Ga  0.618871  0.414922  0.537500
Ga2141  Ga  0.618871  0.414922  0.612500
Ga2142  Ga  0.618871  0.414922  0.687500
Ga2143  Ga  0.618871  0.414922  0.762500
Ga2144  Ga  0.618871  0.414922  0.837500
Ga2145  Ga  0.618871  0.414922  0.912500
Ga2146  Ga  0.618871  0.490363  0.012500
Ga2147  Ga  0.618871  0.490363  0.087500
Ga2148  Ga  0.618871  0.490363  0.162500
Ga2149  Ga  0.618871  0.490363  0.237500
Ga2150  Ga  0.618871  0.490363  0.312500
Ga2151  Ga  0.618871  0.490363  0.387500
Ga2152  Ga  0.618871  0.490363  0.462500
Ga2153  Ga  0.618871  0.490363  0.537500
Ga2154  Ga  0.618871  0.490363  0.612500
Ga2155  Ga  0.618871  0.490363  0.687500
Ga2156  Ga  0.618871  0.490363  0.762500
Ga2157  Ga  0.618871  0.490363  0.837500
Ga2158  Ga  0.618871  0.490363  0.912500
Ga2159  Ga  0.618871  0.565803  0.012500
Ga2160  Ga  0.618871  0.565803  0.087500
Ga2161  Ga  0.618871  0.565803  0.162500
Ga2162  Ga  0.618871  0.565803  0.237500
Ga2163  Ga  0.618871  0.565803  0.312500
Ga2164  Ga  0.618871  0.565803  0.387500
Ga2165  Ga  0.618871  0.565803  0.462500
Ga2166  Ga  0.618871  0.565803  0.537500
Ga2167  Ga  0.618871  0.565803  0.612500
Ga2168  Ga  0.618871  0.565803  0.687500
Ga2169  Ga  0.618871  0.565803  0.762500
Ga2170  Ga  0.618871  0.565803  0.837500
Ga2171  Ga  0.618871  0.565803  0.912500
Ga2172  Ga  0.756398  0.414922  0.012500
Ga2173  Ga  0.756398  0.414922  0.087500
Ga2174  Ga  0.756398  0.414922  0.162500
Ga2175  Ga  0.756398  0.414922  0.237500
Ga2176  Ga  0.756398  0.414922  0.312500
Ga2177  Ga  0.756398  0.414922  0.387500
Ga2178  Ga  0.756398  0.414922  0.462500
Ga2179  Ga  0.756398  0.414922  0.537500
Ga2180  Ga  0.756398  0.414922  0.612500
Ga2181  Ga  0.756398  0.414922  0.687500
Ga2182  Ga  0.756398  0.414922  0.762500
Ga2183  Ga  0.756398  0.414922  0.837500
Ga2184  Ga  0.756398  0.414922  0.912500
Ga2185  Ga  0.756398  0.490363  0.012500
Ga2186  Ga  0.756398  0.490363  0.087500
Ga2187  Ga  0.756398  0.490363  0.162500
Ga2188  Ga  0.756398  0.490363  0.237500
Ga2189  Ga  0.756398  0.490363  0.312500
Ga2190  Ga  0.756398  0.490363  0.387500
Ga2191  Ga  0.756398  0.490363  0.462500
Ga2192  Ga  0.756398  0.490363  0.537500
Ga2193  Ga  0.756398  0.490363  0.612500
Ga2194  Ga  0.756398  0.490363  0.687500
Ga2195  Ga  0.756398  0.490363  0.762500
Ga2196  Ga  0.756398  0.490363  0.837500
Ga2197  Ga  0.756398  0.490363  0.912500
N1  N  0.051573  0.075440  0.025000
N2  N  0.051573  0.075440  0.100000
N3  N  0.051573  0.075440  0.175000
N4  N  0.051573  0.075440  0.250000
N5  N  0.051573  0.075440  0.325000
N6  N  0.051573  0.075440  0.400000
N7  N  0.051573  0.075440  0.475000
N8  N  0.051573  0.075440  0.550000
N9  N  0.051573  0.075440  0.625000
N10  N  0.051573  0.075440  0.700000
N11  N  0.051573  0.075440  0.775000
N12  N  0.051573  0.075440  0.850000
N13  N  0.051573  0.075440  0.925000
N14  N  0.051573  0.150881  0.025000
N15  N  0.051573  0.150881  0.100000
N16  N  0.051573  0.150881  0.175000
N17  N  0.051573  0.150881  0.250000
N18  N  0.051573  0.150881  0.325000
N19  N  0.051573  0.150881  0.400000
N20  N  0.051573  0.150881  0.475000
N21  N  0.051573  0.150881  0.550000
N22  N  0.051573  0.150881  0.625000
N23  N  0.051573  0.150881  0.700000
N24  N  0.051573  0.150881  0.775000
N25  N  0.051573  0.150881  0.850000
N26  N  0.051573  0.150881  0.925000
N27  N  0.051573  0.226321  0.025000
N28  N  0.051573  0.226321  0.100000
N29  N  0.051573  0.226321  0.175000
N30  N  0.051573  0.226321  0.250000
N31  N  0.051573  0.226321  0.325000
N32  N  0.051573  0.226321  0.400000
N33  N  0.051573  0.226321  0.475000
N34  N  0.051573  0.226321  0.550000
N35  N  0.051573  0.226321  0.625000
N36  N  0.051573  0.226321  0.700000
N37  N  0.051573  0.226321  0.775000
N38  N  0.051573  0.226321  0.850000
N39  N  0.051573  0.226321  0.925000
N40  N  0.051573  0.301762  0.025000
N41  N  0.051573  0.301762  0.100000
N42  N  0.051573  0.301762  0.175000
N43  N  0.051573  0.301762  0.250000
N44  N  0.051573  0.301762  0.325000
N45  N  0.051573  0.301762  0.400000
N46  N  0.051573  0.301762  0.475000
N47  N  0.051573  0.301762  0.550000
N48  N  0.051573  0.301762  0.625000
N49  N  0.051573  0.301762  0.700000
N50  N  0.051573  0.301762  0.775000
N51  N  0.051573  0.301762  0.850000
N52  N  0.051573  0.301762  0.925000
N53  N  0.051573  0.377202  0.025000
N54  N  0.051573  0.377202  0.100000
N55  N  0.051573  0.377202  0.175000
N56  N  0.051573  0.377202  0.250000
N57  N  0.051573  0.377202  0.325000
N58  N  0.051573  0.377202  0.400000
N59  N  0.051573  0.377202  0.475000
N60  N  0.051573  0.377202  0.550000
N61  N  0.051573  0.377202  0.625000
N62  N  0.051573  0.377202  0.700000
N63  N  0.051573  0.377202  0.775000
N64  N  0.051573  0.377202  0.850000
N65  N  0.051573  0.377202  0.925000
N66  N  0.051573  0.452643  0.025000
N67  N  0.051573  0.452643  0.100000
N68  N  0.051573  0.452643  0.175000
N69  N  0.051573  0.452643  0.250000
N70  N  0.051573  0.452643  0.325000
N71  N  0.051573  0.452643  0.400000
N72  N  0.051573  0.452643  0.475000
N73  N  0.051573  0.452643  0.550000
N74  N  0.051573  0.452643  0.625000
N75  N  0.051573  0.452643  0.700000
N76  N  0.051573  0.452643  0.775000
N77  N  0.051573  0.452643  0.850000
N78  N  0.051573  0.452643  0.925000
N79  N  0.051573  0.528083  0.025000
N80  N  0.051573  0.528083  0.100000
N81  N  0.051573  0.528083  0.175000
N82  N  0.051573  0.528083  0.250000
N83  N  0.051573  0.528083  0.325000
N84  N  0.051573  0.528083  0.400000
N85  N  0.051573  0.528083  0.475000
N86  N  0.051573  0.528083  0.550000
N87  N  0.051573  0.528083  0.625000
N88  N  0.051573  0.528083  0.700000
N89  N  0.051573  0.528083  0.775000
N90  N  0.051573  0.528083  0.850000
N91  N  0.051573  0.528083  0.925000
N92  N  0.051573  0.603523  0.025000
N93  N  0.051573  0.603523  0.100000
N94  N  0.051573  0.603523  0.175000
N95  N  0.051573  0.603523  0.250000
N96  N  0.051573  0.603523  0.325000
N97  N  0.051573  0.603523  0.400000
N98  N  0.051573  0.603523  0.475000
N99  N  0.051573  0.603523  0.550000
N100  N  0.051573  0.603523  0.625000
N101  N  0.051573  0.603523  0.700000
N102  N  0.051573  0.603523  0.775000
N103  N  0.051573  0.603523  0.850000
N104  N  0.051573  0.603523  0.925000
N105  N  0.051573  0.678964  0.025000
N106  N  0.051573  0.678964  0.100000
N107  N  0.051573  0.678964  0.175000
N108  N  0.051573  0.678964  0.250000
N109  N  0.051573  0.678964  0.325000
N110  N  0.051573  0.678964  0.400000
N111  N  0.051573  0.678964  0.475000
N112  N  0.051573  0.678964  0.550000
N113  N  0.051573  0.678964  0.625000
N114  N  0.051573  0.678964  0.700000
N115  N  0.051573  0.678964  0.775000
N116  N  0.051573  0.678964  0.850000
N117  N  0.051573  0.678964  0.925000
N118  N  0.051573  0.754404  0.025000
N119  N  0.051573  0.754404  0.100000
N120  N  0.051573  0.754404  0.175000
N121  N  0.051573  0.754404  0.250000
N122  N  0.051573  0.754404  0.325000
N123  N  0.051573  0.754404  0.400000
N124  N  0.051573  0.754404  0.475000
N125  N  0.051573  0.754404  0.550000
N126  N  0.051573  0.754404  0.625000
N127  N  0.051573  0.754404  0.700000
N128  N  0.051573  0.754404  0.775000
N129  N  0.051573  0.754404  0.850000
N130  N  0.051573  0.754404  0.925000
N131  N  0.051573  0.829845  0.025000
N132  N  0.051573  0.829845  0.100000
N133  N  0.051573  0.829845  0.175000
N134  N  0.051573  0.829845  0.250000
N135  N  0.051573  0.829845  0.325000
N136  N  0.051573  0.829845  0.400000
N137  N  0.051573  0.829845  0.475000
N138  N  0.051573  0.829845  0.550000
N139  N  0.051573  0.829845  0.625000
N140  N  0.051573  0.829845  0.700000
N141  N  0.051573  0.829845  0.775000
N142  N  0.051573  0.829845  0.850000
N143  N  0.051573  0.829845  0.925000
N144  N  0.189099  0.150881  0.025000
N145  N  0.189099  0.150881  0.100000
N146  N  0.189099  0.150881  0.175000
N147  N  0.189099  0.150881  0.250000
N148  N  0.189099  0.150881  0.325000
N149  N  0.189099  0.150881  0.400000
N150  N  0.189099  0.150881  0.475000
N151  N  0.189099  0.150881  0.550000
N152  N  0.189099  0.150881  0.625000
N153  N  0.189099  0.150881  0.700000
N154  N  0.189099  0.150881  0.775000
N155  N  0.189099  0.150881  0.850000
N156  N  0.189099  0.150881  0.925000
N157  N  0.189099  0.226321  0.025000
N158  N  0.189099  0.226321  0.100000
N159  N  0.189099  0.226321  0.175000
N160  N  0.189099  0.226321  0.250000
N161  N  0.189099  0.226321  0.325000
N162  N  0.189099  0.226321  0.400000
N163  N  0.189099  0.226321  0.475000
N164  N  0.189099  0.226321  0.550000
N165  N  0.189099  0.226321  0.625000
N166  N  0.189099  0.226321  0.700000
N167  N  0.189099  0.226321  0.775000
N168  N  0.189099  0.226321  0.850000
N169  N  0.189099  0.226321  0.925000
N170  N  0.189099  0.301762  0.025000
N171  N  0.189099  0.301762  0.100000
N172  N  0.189099  0.301762  0.175000
N173  N  0.189099  0.301762  0.250000
N174  N  0.189099  0.301762  0.325000
N175  N  0.189099  0.301762  0.400000
N176  N  0.189099  0.301762  0.475000
N177  N  0.189099  0.301762  0.550000
N178  N  0.189099  0.301762  0.625000
N179  N  0.189099  0.301762  0.700000
N180  N  0.189099  0.301762  0.775000
N181  N  0.189099  0.301762  0.850000
N182  N  0.189099  0.301762  0.925000
N183  N  0.189099  0.377202  0.025000
N184  N  0.189099  0.377202  0.100000
N185  N  0.189099  0.377202  0.175000
N186  N  0.189099  0.377202  0.250000
N187  N  0.189099  0.377202  0.325000
N188  N  0.189099  0.377202  0.400000
N189  N  0.189099  0.377202  0.475000
N190  N  0.189099  0.377202  0.550000
N191  N  0.189099  0.377202  0.625000
N192  N  0.189099  0.377202  0.700000
N193  N  0.189099  0.377202  0.775000
N194  N  0.189099  0.377202  0.850000
N195  N  0.189099  0.377202  0.925000
N196  N  0.189099  0.452643  0.025000
N197  N  0.189099  0.452643  0.100000
N198  N  0.189099  0.452643  0.175000
N199  N  0.189099  0.452643  0.250000
N200  N  0.189099  0.452643  0.325000
N201  N  0.189099  0.452643  0.400000
N202  N  0.189099  0.452643  0.475000
N203  N  0.189099  0.452643  0.550000
N204  N  0.189099  0.452643  0.625000
N205  N  0.189099  0.452643  0.700000
N206  N  0.189099  0.452643  0.775000
N207  N  0.189099  0.452643  0.850000
N208  N  0.189099  0.452643  0.925000
N209  N  0.189099  0.528083  0.025000
N210  N  0.189099  0.528083  0.100000
N211  N  0.189099  0.528083  0.175000
N212  N  0.189099  0.528083  0.250000
N213  N  0.189099  0.528083  0.325000
N214  N  0.189099  0.528083  0.400000
N215  N  0.189099  0.528083  0.475000
N216  N  0.189099  0.528083  0.550000
N217  N  0.189099  0.528083  0.625000
N218  N  0.189099  0.528083  0.700000
N219  N  0.189099  0.528083  0.775000
N220  N  0.189099  0.528083  0.850000
N221  N  0.189099  0.528083  0.925000
N222  N  0.189099  0.603523  0.025000
N223  N  0.189099  0.603523  0.100000
N224  N  0.189099  0.603523  0.175000
N225  N  0.189099  0.603523  0.250000
N226  N  0.189099  0.603523  0.325000
N227  N  0.189099  0.603523  0.400000
N228  N  0.189099  0.603523  0.475000
N229  N  0.189099  0.603523  0.550000
N230  N  0.189099  0.603523  0.625000
N231  N  0.189099  0.603523  0.700000
N232  N  0.189099  0.603523  0.775000
N233  N  0.189099  0.603523  0.850000
N234  N  0.189099  0.603523  0.925000
N235  N  0.189099  0.678964  0.025000
N236  N  0.189099  0.678964  0.100000
N237  N  0.189099  0.678964  0.175000
N238  N  0.189099  0.678964  0.250000
N239  N  0.189099  0.678964  0.325000
N240  N  0.189099  0.678964  0.400000
N241  N  0.189099  0.678964  0.475000
N242  N  0.189099  0.678964  0.550000
N243  N  0.189099  0.678964  0.625000
N244  N  0.189099  0.678964  0.700000
N245  N  0.189099  0.678964  0.775000
N246  N  0.189099  0.678964  0.850000
N247  N  0.189099  0.678964  0.925000
N248  N  0.189099  0.754404  0.025000
N249  N  0.189099  0.754404  0.100000
N250  N  0.189099  0.754404  0.175000
N251  N  0.189099  0.754404  0.250000
N252  N  0.189099  0.754404  0.325000
N253  N  0.189099  0.754404  0.400000
N254  N  0.189099  0.754404  0.475000
N255  N  0.189099  0.754404  0.550000
N256  N  0.189099  0.754404  0.625000
N257  N  0.189099  0.754404  0.700000
N258  N  0.189099  0.754404  0.775000
N259  N  0.189099  0.754404  0.850000
N260  N  0.189099  0.754404  0.925000
N261  N  0.326626  0.226321  0.025000
N262  N  0.326626  0.226321  0.100000
N263  N  0.326626  0.226321  0.175000
N264  N  0.326626  0.226321  0.250000
N265  N  0.326626  0.226321  0.325000
N266  N  0.326626  0.226321  0.400000
N267  N  0.326626  0.226321  0.475000
N268  N  0.326626  0.226321  0.550000
N269  N  0.326626  0.226321  0.625000
N270  N  0.326626  0.226321  0.700000
N271  N  0.326626  0.226321  0.775000
N272  N  0.326626  0.226321  0.850000
N273  N  0.326626  0.226321  0.925000
N274  N  0.326626  0.301762  0.025000
N275  N  0.326626  0.301762  0.100000
N276  N  0.326626  0.301762  0.175000
N277  N  0.326626  0.301762  0.250000
N278  N  0.326626  0.301762  0.325000
N279  N  0.326626  0.301762  0.400000
N280  N  0.326626  0.301762  0.475000
N281  N  0.326626  0.301762  0.550000
N282  N  0.326626  0.301762  0.625000
N283  N  0.326626  0.301762  0.700000
N284  N  0.326626  0.301762  0.775000
N285  N  0.326626  0.301762  0.850000
N286  N  0.326626  0.301762  0.925000
N287  N  0.326626  0.377202  0.025000
N288  N  0.326626  0.377202  0.100000
N289  N  0.326626  0.377202  0.175000
N290  N  0.326626  0.377202  0.250000
N291  N  0.326626  0.377202  0.325000
N292  N  0.326626  0.377202  0.400000
N293  N  0.326626  0.377202  0.475000
N294  N  0.326626  0.377202  0.550000
N295  N  0.326626  0.377202  0.625000
N296  N  0.326626  0.377202  0.700000
N297  N  0.326626  0.377202  0.775000
N298  N  0.326626  0.377202  0.850000
N299  N  0.326626  0.377202  0.925000
N300  N  0.326626  0.452643  0.025000
N301  N  0.326626  0.452643  0.100000
N302  N  0.326626  0.452643  0.175000
N303  N  0.326626  0.452643  0.250000
N304  N  0.326626  0.452643  0.325000
N305  N  0.326626  0.452643  0.400000
N306  N  0.326626  0.452643  0.475000
N307  N  0.326626  0.452643  0.550000
N308  N  0.326626  0.452643  0.625000
N309  N  0.326626  0.452643  0.700000
N310  N  0.326626  0.452643  0.775000
N311  N  0.326626  0.452643  0.850000
N312  N  0.326626  0.452643  0.925000
N313  N  0.326626  0.528083  0.025000
N314  N  0.326626  0.528083  0.100000
N315  N  0.326626  0.528083  0.175000
N316  N  0.326626  0.528083  0.250000
N317  N  0.326626  0.528083  0.325000
N318  N  0.326626  0.528083  0.400000
N319  N  0.326626  0.528083  0.475000
N320  N  0.326626  0.528083  0.550000
N321  N  0.326626  0.528083  0.625000
N322  N  0.326626  0.528083  0.700000
N323  N  0.326626  0.528083  0.775000
N324  N  0.326626  0.528083  0.850000
N325  N  0.326626  0.528083  0.925000
N326  N  0.326626  0.603523  0.025000
N327  N  0.326626  0.603523  0.100000
N328  N  0.326626  0.603523  0.175000
N329  N  0.326626  0.603523  0.250000
N330  N  0.326626  0.603523  0.325000
N331  N  0.326626  0.603523  0.400000
N332  N  0.326626  0.603523  0.475000
N333  N  0.326626  0.603523  0.550000
N334  N  0.326626  0.603523  0.625000
N335  N  0.326626  0.603523  0.700000
N336  N  0.326626  0.603523  0.775000
N337  N  0.326626  0.603523  0.850000
N338  N  0.326626  0.603523  0.925000
N339  N  0.326626  0.678964  0.025000
N340  N  0.326626  0.678964  0.100000
N341  N  0.326626  0.678964  0.175000
N342  N  0.326626  0.678964  0.250000
N343  N  0.326626  0.678964  0.325000
N344  N  0.326626  0.678964  0.400000
N345  N  0.326626  0.678964  0.475000
N346  N  0.326626  0.678964  0.550000
N347  N  0.326626  0.678964  0.625000
N348  N  0.326626  0.678964  0.700000
N349  N  0.326626  0.678964  0.775000
N350  N  0.326626  0.678964  0.850000
N351  N  0.326626  0.678964  0.925000
N352  N  0.464153  0.301762  0.025000
N353  N  0.464153  0.301762  0.100000
N354  N  0.464153  0.301762  0.175000
N355  N  0.464153  0.301762  0.250000
N356  N  0.464153  0.301762  0.325000
N357  N  0.464153  0.301762  0.400000
N358  N  0.464153  0.301762  0.475000
N359  N  0.464153  0.301762  0.550000
N360  N  0.464153  0.301762  0.625000
N361  N  0.464153  0.301762  0.700000
N362  N  0.464153  0.301762  0.775000
N363  N  0.464153  0.301762  0.850000
N364  N  0.464153  0.301762  0.925000
N365  N  0.464153  0.377202  0.025000
N366  N  0.464153  0.377202  0.100000
N367  N  0.464153  0.377202  0.175000
N368  N  0.464153  0.377202  0.250000
N369  N  0.464153  0.377202  0.325000
N370  N  0.464153  0.377202  0.400000
N371  N  0.464153  0.377202  0.475000
N372  N  0.464153  0.377202  0.550000
N373  N  0.464153  0.377202  0.625000
N374  N  0.464153  0.377202  0.700000
N375  N  0.464153  0.377202  0.775000
N376  N  0.464153  0.377202  0.850000
N377  N  0.464153  0.377202  0.925000
N378  N  0.464153  0.452643  0.025000
N379  N  0.464153  0.452643  0.100000
N380  N  0.464153  0.452643  0.175000
N381  N  0.464153  0.452643  0.250000
N382  N  0.464153  0.452643  0.325000
N383  N  0.464153  0.452643  0.400000
N384  N  0.464153  0.452643  0.475000
N385  N  0.464153  0.452643  0.550000
N386  N  0.464153  0.452643  0.625000
N387  N  0.464153  0.452643  0.700000
N388  N  0.464153  0.452643  0.775000
N389  N  0.464153  0.452643  0.850000
N390  N  0.464153  0.452643  0.925000
N391  N  0.464153  0.528083  0.025000
N392  N  0.464153  0.528083  0.100000
N393  N  0.464153  0.528083  0.175000
N394  N  0.464153  0.528083  0.250000
N395  N  0.464153  0.528083  0.325000
N396  N  0.464153  0.528083  0.400000
N397  N  0.464153  0.528083  0.475000
N398  N  0.464153  0.528083  0.550000
N399  N  0.464153  0.528083  0.625000
N400  N  0.464153  0.528083  0.700000
N401  N  0.464153  0.528083  0.775000
N402  N  0.464153  0.528083  0.850000
N403  N  0.464153  0.528083  0.925000
N404  N  0.464153  0.603523  0.025000
N405  N  0.464153  0.603523  0.100000
N406  N  0.464153  0.603523  0.175000
N407  N  0.464153  0.603523  0.250000
N408  N  0.464153  0.603523  0.325000
N409  N  0.464153  0.603523  0.400000
N410  N  0.464153  0.603523  0.475000
N411  N  0.464153  0.603523  0.550000
N412  N  0.464153  0.603523  0.625000
N413  N  0.464153  0.603523  0.700000
N414  N  0.464153  0.603523  0.775000
N415  N  0.464153  0.603523  0.850000
N416  N  0.464153  0.603523  0.925000
N417  N  0.601680  0.377202  0.025000
N418  N  0.601680  0.377202  0.100000
N419  N  0.601680  0.377202  0.175000
N420  N  0.601680  0.377202  0.250000
N421  N  0.601680  0.377202  0.325000
N422  N  0.601680  0.377202  0.400000
N423  N  0.601680  0.377202  0.475000
N424  N  0.601680  0.377202  0.550000
N425  N  0.601680  0.377202  0.625000
N426  N  0.601680  0.377202  0.700000
N427  N  0.601680  0.377202  0.775000
N428  N  0.601680  0.377202  0.850000
N429  N  0.601680  0.377202  0.925000
N430  N  0.601680  0.452643  0.025000
N431  N  0.601680  0.452643  0.100000
N432  N  0.601680  0.452643  0.175000
N433  N  0.601680  0.452643  0.250000
N434  N  0.601680  0.452643  0.325000
N435  N  0.601680  0.452643  0.400000
N436  N  0.601680  0.452643  0.475000
N437  N  0.601680  0.452643  0.550000
N438  N  0.601680  0.452643  0.625000
N439  N  0.601680  0.452643  0.700000
N440  N  0.601680  0.452643  0.775000
N441  N  0.601680  0.452643  0.850000
N442  N  0.601680  0.452643  0.925000
N443  N  0.601680  0.528083  0.025000
N444  N  0.601680  0.528083  0.100000
N445  N  0.601680  0.528083  0.175000
N446  N  0.601680  0.528083  0.250000
N447  N  0.601680  0.528083  0.325000
N448  N  0.601680  0.528083  0.400000
N449  N  0.601680  0.528083  0.475000
N450  N  0.601680  0.528083  0.550000
N451  N  0.601680  0.528083  0.625000
N452  N  0.601680  0.528083  0.700000
N453  N  0.601680  0.528083  0.775000
N454  N  0.601680  0.528083  0.850000
N455  N  0.601680  0.528083  0.925000
N456  N  0.739207  0.452643  0.025000
N457  N  0.739207  0.452643  0.100000
N458  N  0.739207  0.452643  0.175000
N459  N  0.739207  0.452643  0.250000
N460  N  0.739207  0.452643  0.325000
N461  N  0.739207  0.452643  0.400000
N462  N  0.739207  0.452643  0.475000
N463  N  0.739207  0.452643  0.550000
N464  N  0.739207  0.452643  0.625000
N465  N  0.739207  0.452643  0.700000
N466  N  0.739207  0.452643  0.775000
N467  N  0.739207  0.452643  0.850000
N468  N  0.739207  0.452643  0.925000
N469  N  0.051573  0.037720  0.062500
N470  N  0.051573  0.037720  0.137500
N471  N  0.051573  0.037720  0.212500
N472  N  0.051573  0.037720  0.287500
N473  N  0.051573  0.037720  0.362500
N474  N  0.051573  0.037720  0.437500
N475  N  0.051573  0.037720  0.512500
N476  N  0.051573  0.037720  0.587500
N477  N  0.051573  0.037720  0.662500
N478  N  0.051573  0.037720  0.737500
N479  N  0.051573  0.037720  0.812500
N480  N  0.051573  0.037720  0.887500
N481  N  0.051573  0.037720  0.962500
N482  N  0.051573  0.113161  0.062500
N483  N  0.051573  0.113161  0.137500
N484  N  0.051573  0.113161  0.212500
N485  N  0.051573  0.113161  0.287500
N486  N  0.051573  0.113161  0.362500
N487  N  0.051573  0.113161  0.437500
N488  N  0.051573  0.113161  0.512500
N489  N  0.051573  0.113161  0.587500
N490  N  0.051573  0.113161  0.662500
N491  N  0.051573  0.113161  0.737500
N492  N  0.051573  0.113161  0.812500
N493  N  0.051573  0.113161  0.887500
N494  N  0.051573  0.113161  0.962500
N495  N  0.051573  0.188601  0.062500
N496  N  0.051573  0.188601  0.137500
N497  N  0.051573  0.188601  0.212500
N498  N  0.051573  0.188601  0.287500
N499  N  0.051573  0.188601  0.362500
N500  N  0.051573  0.188601  0.437500
N501  N  0.051573  0.188601  0.512500
N502  N  0.051573  0.188601  0.587500
N503  N  0.051573  0.188601  0.662500
N504  N  0.051573  0.188601  0.737500
N505  N  0.051573  0.188601  0.812500
N506  N  0.051573  0.188601  0.887500
N507  N  0.051573  0.188601  0.962500
N508  N  0.051573  0.264041  0.062500
N509  N  0.051573  0.264041  0.137500
N510  N  0.051573  0.264041  0.212500
N511  N  0.051573  0.264041  0.287500
N512  N  0.051573  0.264041  0.362500
N513  N  0.051573  0.264041  0.437500
N514  N  0.051573  0.264041  0.512500
N515  N  0.051573  0.264041  0.587500
N516  N  0.051573  0.264041  0.662500
N517  N  0.051573  0.264041  0.737500
N518  N  0.051573  0.264041  0.812500
N519  N  0.051573  0.264041  0.887500
N520  N  0.051573  0.264041  0.962500
N521  N  0.051573  0.339482  0.062500
N522  N  0.051573  0.339482  0.137500
N523  N  0.051573  0.339482  0.212500
N524  N  0.051573  0.339482  0.287500
N525  N  0.051573  0.339482  0.362500
N526  N  0.051573  0.339482  0.437500
N527  N  0.051573  0.339482  0.512500
N528  N  0.051573  0.339482  0.587500
N529  N  0.051573  0.339482  0.662500
N530  N  0.051573  0.339482  0.737500
N531  N  0.051573  0.339482  0.812500
N532  N  0.051573  0.339482  0.887500
N533  N  0.051573  0.339482  0.962500
N534  N  0.051573  0.414922  0.062500
N535  N  0.051573  0.414922  0.137500
N536  N  0.051573  0.414922  0.212500
N537  N  0.051573  0.414922  0.287500
N538  N  0.051573  0.414922  0.362500
N539  N  0.051573  0.414922  0.437500
N540  N  0.051573  0.414922  0.512500
N541  N  0.051573  0.414922  0.587500
N542  N  0.051573  0.414922  0.662500
N543  N  0.051573  0.414922  0.737500
N544  N  0.051573  0.414922  0.812500
N545  N  0.051573  0.414922  0.887500
N546  N  0.051573  0.414922  0.962500
N547  N  0.051573  0.490363  0.062500
N548  N  0.051573  0.490363  0.137500
N549  N  0.051573  0.490363  0.212500
N550  N  0.051573  0.490363  0.287500
N551  N  0.051573  0.490363  0.362500
N552  N  0.051573  0.490363  0.437500
N553  N  0.051573  0.490363  0.512500
N554  N  0.051573  0.490363  0.587500
N555  N  0.051573  0.490363  0.662500
N556  N  0.051573  0.490363  0.737500
N557  N  0.051573  0.490363  0.812500
N558  N  0.051573  0.490363  0.887500
N559  N  0.051573  0.490363  0.962500
N560  N  0.051573  0.565803  0.062500
N561  N  0.051573  0.565803  0.137500
N562  N  0.051573  0.565803  0.212500
N563  N  0.051573  0.565803  0.287500
N564  N  0.051573  0.565803  0.362500
N565  N  0.051573  0.565803  0.437500
N566  N  0.051573  0.565803  0.512500
N567  N  0.051573  0.565803  0.587500
N568  N  0.051573  0.565803  0.662500
N569  N  0.051573  0.565803  0.737500
N570  N  0.051573  0.565803  0.812500
N571  N  0.051573  0.565803  0.887500
N572  N  0.051573  0.565803  0.962500
N573  N  0.051573  0.641244  0.062500
N574  N  0.051573  0.641244  0.137500
N575  N  0.051573  0.641244  0.212500
N576  N  0.051573  0.641244  0.287500
N577  N  0.051573  0.641244  0.362500
N578  N  0.051573  0.641244  0.437500
N579  N  0.051573  0.641244  0.512500
N580  N  0.051573  0.641244  0.587500
N581  N  0.051573  0.641244  0.662500
N582  N  0.051573  0.641244  0.737500
N583  N  0.051573  0.641244  0.812500
N584  N  0.051573  0.641244  0.887500
N585  N  0.051573  0.641244  0.962500
N586  N  0.051573  0.716684  0.062500
N587  N  0.051573  0.716684  0.137500
N588  N  0.051573  0.716684  0.212500
N589  N  0.051573  0.716684  0.287500
N590  N  0.051573  0.716684  0.362500
N591  N  0.051573  0.716684  0.437500
N592  N  0.051573  0.716684  0.512500
N593  N  0.051573  0.716684  0.587500
N594  N  0.051573  0.716684  0.662500
N595  N  0.051573  0.716684  0.737500
N596  N  0.051573  0.716684  0.812500
N597  N  0.051573  0.716684  0.887500
N598  N  0.051573  0.716684  0.962500
N599  N  0.051573  0.792124  0.062500
N600  N  0.051573  0.792124  0.137500
N601  N  0.051573  0.792124  0.212500
N602  N  0.051573  0.792124  0.287500
N603  N  0.051573  0.792124  0.362500
N604  N  0.051573  0.792124  0.437500
N605  N  0.051573  0.792124  0.512500
N606  N  0.051573  0.792124  0.587500
N607  N  0.051573  0.792124  0.662500
N608  N  0.051573  0.792124  0.737500
N609  N  0.051573  0.792124  0.812500
N610  N  0.051573  0.792124  0.887500
N611  N  0.051573  0.792124  0.962500
N612  N  0.051573  0.867565  0.062500
N613  N  0.051573  0.867565  0.137500
N614  N  0.051573  0.867565  0.212500
N615  N  0.051573  0.867565  0.287500
N616  N  0.051573  0.867565  0.362500
N617  N  0.051573  0.867565  0.437500
N618  N  0.051573  0.867565  0.512500
N619  N  0.051573  0.867565  0.587500
N620  N  0.051573  0.867565  0.662500
N621  N  0.051573  0.867565  0.737500
N622  N  0.051573  0.867565  0.812500
N623  N  0.051573  0.867565  0.887500
N624  N  0.051573  0.867565  0.962500
N625  N  0.189099  0.113161  0.062500
N626  N  0.189099  0.113161  0.137500
N627  N  0.189099  0.113161  0.212500
N628  N  0.189099  0.113161  0.287500
N629  N  0.189099  0.113161  0.362500
N630  N  0.189099  0.113161  0.437500
N631  N  0.189099  0.113161  0.512500
N632  N  0.189099  0.113161  0.587500
N633  N  0.189099  0.113161  0.662500
N634  N  0.189099  0.113161  0.737500
N635  N  0.189099  0.113161  0.812500
N636  N  0.189099  0.113161  0.887500
N637  N  0.189099  0.113161  0.962500
N638  N  0.189099  0.188601  0.062500
N639  N  0.189099  0.188601  0.137500
N640  N  0.189099  0.188601  0.212500
N641  N  0.189099  0.188601  0.287500
N642  N  0.189099  0.188601  0.362500
N643  N  0.189099  0.188601  0.437500
N644  N  0.189099  0.188601  0.512500
N645  N  0.189099  0.188601  0.587500
N646  N  0.189099  0.188601  0.662500
N647  N  0.189099  0.188601  0.737500
N648  N  0.189099  0.188601  0.812500
N649  N  0.189099  0.188601  0.887500
N650  N  0.189099  0.188601  0.962500
N651  N  0.189099  0.264041  0.062500
N652  N  0.189099  0.264041  0.137500
N653  N  0.189099  0.264041  0.212500
N654  N  0.189099  0.264041  0.287500
N655  N  0.189099  0.264041  0.362500
N656  N  0.189099  0.264041  0.437500
N657  N  0.189099  0.264041  0.512500
N658  N  0.189099  0.264041  0.587500
N659  N  0.189099  0.264041  0.662500
N660  N  0.189099  0.264041  0.737500
N661  N  0.189099  0.264041  0.812500
N662  N  0.189099  0.264041  0.887500
N663  N  0.189099  0.264041  0.962500
N664  N  0.189099  0.339482  0.062500
N665  N  0.189099  0.339482  0.137500
N666  N  0.189099  0.339482  0.212500
N667  N  0.189099  0.339482  0.287500
N668  N  0.189099  0.339482  0.362500
N669  N  0.189099  0.339482  0.437500
N670  N  0.189099  0.339482  0.512500
N671  N  0.189099  0.339482  0.587500
N672  N  0.189099  0.339482  0.662500
N673  N  0.189099  0.339482  0.737500
N674  N  0.189099  0.339482  0.812500
N675  N  0.189099  0.339482  0.887500
N676  N  0.189099  0.339482  0.962500
N677  N  0.189099  0.414922  0.062500
N678  N  0.189099  0.414922  0.137500
N679  N  0.189099  0.414922  0.212500
N680  N  0.189099  0.414922  0.287500
N681  N  0.189099  0.414922  0.362500
N682  N  0.189099  0.414922  0.437500
N683  N  0.189099  0.414922  0.512500
N684  N  0.189099  0.414922  0.587500
N685  N  0.189099  0.414922  0.662500
N686  N  0.189099  0.414922  0.737500
N687  N  0.189099  0.414922  0.812500
N688  N  0.189099  0.414922  0.887500
N689  N  0.189099  0.414922  0.962500
N690  N  0.189099  0.490363  0.062500
N691  N  0.189099  0.490363  0.137500
N692  N  0.189099  0.490363  0.212500
N693  N  0.189099  0.490363  0.287500
N694  N  0.189099  0.490363  0.362500
N695  N  0.189099  0.490363  0.437500
N696  N  0.189099  0.490363  0.512500
N697  N  0.189099  0.490363  0.587500
N698  N  0.189099  0.490363  0.662500
N699  N  0.189099  0.490363  0.737500
N700  N  0.189099  0.490363  0.812500
N701  N  0.189099  0.490363  0.887500
N702  N  0.189099  0.490363  0.962500
N703  N  0.189099  0.565803  0.062500
N704  N  0.189099  0.565803  0.137500
N705  N  0.189099  0.565803  0.212500
N706  N  0.189099  0.565803  0.287500
N707  N  0.189099  0.565803  0.362500
N708  N  0.189099  0.565803  0.437500
N709  N  0.189099  0.565803  0.512500
N710  N  0.189099  0.565803  0.587500
N711  N  0.189099  0.565803  0.662500
N712  N  0.189099  0.565803  0.737500
N713  N  0.189099  0.565803  0.812500
N714  N  0.189099  0.565803  0.887500
N715  N  0.189099  0.565803  0.962500
N716  N  0.189099  0.641244  0.062500
N717  N  0.189099  0.641244  0.137500
N718  N  0.189099  0.641244  0.212500
N719  N  0.189099  0.641244  0.287500
N720  N  0.189099  0.641244  0.362500
N721  N  0.189099  0.641244  0.437500
N722  N  0.189099  0.641244  0.512500
N723  N  0.189099  0.641244  0.587500
N724  N  0.189099  0.641244  0.662500
N725  N  0.189099  0.641244  0.737500
N726  N  0.189099  0.641244  0.812500
N727  N  0.189099  0.641244  0.887500
N728  N  0.189099  0.641244  0.962500
N729  N  0.189099  0.716684  0.062500
N730  N  0.189099  0.716684  0.137500
N731  N  0.189099  0.716684  0.212500
N732  N  0.189099  0.716684  0.287500
N733  N  0.189099  0.716684  0.362500
N734  N  0.189099  0.716684  0.437500
N735  N  0.189099  0.716684  0.512500
N736  N  0.189099  0.716684  0.587500
N737  N  0.189099  0.716684  0.662500
N738  N  0.189099  0.716684  0.737500
N739  N  0.189099  0.716684  0.812500
N740  N  0.189099  0.716684  0.887500
N741  N  0.189099  0.716684  0.962500
N742  N  0.189099  0.792124  0.062500
N743  N  0.189099  0.792124  0.137500
N744  N  0.189099  0.792124  0.212500
N745  N  0.189099  0.792124  0.287500
N746  N  0.189099  0.792124  0.362500
N747  N  0.189099  0.792124  0.437500
N748  N  0.189099  0.792124  0.512500
N749  N  0.189099  0.792124  0.587500
N750  N  0.189099  0.792124  0.662500
N751  N  0.189099  0.792124  0.737500
N752  N  0.189099  0.792124  0.812500
N753  N  0.189099  0.792124  0.887500
N754  N  0.189099  0.792124  0.962500
N755  N  0.326626  0.188601  0.062500
N756  N  0.326626  0.188601  0.137500
N757  N  0.326626  0.188601  0.212500
N758  N  0.326626  0.188601  0.287500
N759  N  0.326626  0.188601  0.362500
N760  N  0.326626  0.188601  0.437500
N761  N  0.326626  0.188601  0.512500
N762  N  0.326626  0.188601  0.587500
N763  N  0.326626  0.188601  0.662500
N764  N  0.326626  0.188601  0.737500
N765  N  0.326626  0.188601  0.812500
N766  N  0.326626  0.188601  0.887500
N767  N  0.326626  0.188601  0.962500
N768  N  0.326626  0.264041  0.062500
N769  N  0.326626  0.264041  0.137500
N770  N  0.326626  0.264041  0.212500
N771  N  0.326626  0.264041  0.287500
N772  N  0.326626  0.264041  0.362500
N773  N  0.326626  0.264041  0.437500
N774  N  0.326626  0.264041  0.512500
N775  N  0.326626  0.264041  0.587500
N776  N  0.326626  0.264041  0.662500
N777  N  0.326626  0.264041  0.737500
N778  N  0.326626  0.264041  0.812500
N779  N  0.326626  0.264041  0.887500
N780  N  0.326626  0.264041  0.962500
N781  N  0.326626  0.339482  0.062500
N782  N  0.326626  0.339482  0.137500
N783  N  0.326626  0.339482  0.212500
N784  N  0.326626  0.339482  0.287500
N785  N  0.326626  0.339482  0.362500
N786  N  0.326626  0.339482  0.437500
N787  N  0.326626  0.339482  0.512500
N788  N  0.326626  0.339482  0.587500
N789  N  0.326626  0.339482  0.662500
N790  N  0.326626  0.339482  0.737500
N791  N  0.326626  0.339482  0.812500
N792  N  0.326626  0.339482  0.887500
N793  N  0.326626  0.339482  0.962500
N794  N  0.326626  0.414922  0.062500
N795  N  0.326626  0.414922  0.137500
N796  N  0.326626  0.414922  0.212500
N797  N  0.326626  0.414922  0.287500
N798  N  0.326626  0.414922  0.362500
N799  N  0.326626  0.414922  0.437500
N800  N  0.326626  0.414922  0.512500
N801  N  0.326626  0.414922  0.587500
N802  N  0.326626  0.414922  0.662500
N803  N  0.326626  0.414922  0.737500
N804  N  0.326626  0.414922  0.812500
N805  N  0.326626  0.414922  0.887500
N806  N  0.326626  0.414922  0.962500
N807  N  0.326626  0.490363  0.062500
N808  N  0.326626  0.490363  0.137500
N809  N  0.326626  0.490363  0.212500
N810  N  0.326626  0.490363  0.287500
N811  N  0.326626  0.490363  0.362500
N812  N  0.326626  0.490363  0.437500
N813  N  0.326626  0.490363  0.512500
N814  N  0.326626  0.490363  0.587500
N815  N  0.326626  0.490363  0.662500
N816  N  0.326626  0.490363  0.737500
N817  N  0.326626  0.490363  0.812500
N818  N  0.326626  0.490363  0.887500
N819  N  0.326626  0.490363  0.962500
N820  N  0.326626  0.565803  0.062500
N821  N  0.326626  0.565803  0.137500
N822  N  0.326626  0.565803  0.212500
N823  N  0.326626  0.565803  0.287500
N824  N  0.326626  0.565803  0.362500
N825  N  0.326626  0.565803  0.437500
N826  N  0.326626  0.565803  0.512500
N827  N  0.326626  0.565803  0.587500
N828  N  0.326626  0.565803  0.662500
N829  N  0.326626  0.565803  0.737500
N830  N  0.326626  0.565803  0.812500
N831  N  0.326626  0.565803  0.887500
N832  N  0.326626  0.565803  0.962500
N833  N  0.326626  0.641244  0.062500
N834  N  0.326626  0.641244  0.137500
N835  N  0.326626  0.641244  0.212500
N836  N  0.326626  0.641244  0.287500
N837  N  0.326626  0.641244  0.362500
N838  N  0.326626  0.641244  0.437500
N839  N  0.326626  0.641244  0.512500
N840  N  0.326626  0.641244  0.587500
N841  N  0.326626  0.641244  0.662500
N842  N  0.326626  0.641244  0.737500
N843  N  0.326626  0.641244  0.812500
N844  N  0.326626  0.641244  0.887500
N845  N  0.326626  0.641244  0.962500
N846  N  0.326626  0.716684  0.062500
N847  N  0.326626  0.716684  0.137500
N848  N  0.326626  0.716684  0.212500
N849  N  0.326626  0.716684  0.287500
N850  N  0.326626  0.716684  0.362500
N851  N  0.326626  0.716684  0.437500
N852  N  0.326626  0.716684  0.512500
N853  N  0.326626  0.716684  0.587500
N854  N  0.326626  0.716684  0.662500
N855  N  0.326626  0.716684  0.737500
N856  N  0.326626  0.716684  0.812500
N857  N  0.326626  0.716684  0.887500
N858  N  0.326626  0.716684  0.962500
N859  N  0.464153  0.264041  0.062500
N860  N  0.464153  0.264041  0.137500
N861  N  0.464153  0.264041  0.212500
N862  N  0.464153  0.264041  0.287500
N863  N  0.464153  0.264041  0.362500
N864  N  0.464153  0.264041  0.437500
N865  N  0.464153  0.264041  0.512500
N866  N  0.464153  0.264041  0.587500
N867  N  0.464153  0.264041  0.662500
N868  N  0.464153  0.264041  0.737500
N869  N  0.464153  0.264041  0.812500
N870  N  0.464153  0.264041  0.887500
N871  N  0.464153  0.264041  0.962500
N872  N  0.464153  0.339482  0.062500
N873  N  0.464153  0.339482  0.137500
N874  N  0.464153  0.339482  0.212500
N875  N  0.464153  0.339482  0.287500
N876  N  0.464153  0.339482  0.362500
N877  N  0.464153  0.339482  0.437500
N878  N  0.464153  0.339482  0.512500
N879  N  0.464153  0.339482  0.587500
N880  N  0.464153  0.339482  0.662500
N881  N  0.464153  0.339482  0.737500
N882  N  0.464153  0.339482  0.812500
N883  N  0.464153  0.339482  0.887500
N884  N  0.464153  0.339482  0.962500
N885  N  0.464153  0.414922  0.062500
N886  N  0.464153  0.414922  0.137500
N887  N  0.464153  0.414922  0.212500
N888  N  0.464153  0.414922  0.287500
N889  N  0.464153  0.414922  0.362500
N890  N  0.464153  0.414922  0.437500
N891  N  0.464153  0.414922  0.512500
N892  N  0.464153  0.414922  0.587500
N893  N  0.464153  0.414922  0.662500
N894  N  0.464153  0.414922  0.737500
N895  N  0.464153  0.414922  0.812500
N896  N  0.464153  0.414922  0.887500
N897  N  0.464153  0.414922  0.962500
N898  N  0.464153  0.490363  0.062500
N899  N  0.464153  0.490363  0.137500
N900  N  0.464153  0.490363  0.212500
N901  N  0.464153  0.490363  0.287500
N902  N  0.464153  0.490363  0.362500
N903  N  0.464153  0.490363  0.437500
N904  N  0.464153  0.490363  0.512500
N905  N  0.464153  0.490363  0.587500
N906  N  0.464153  0.490363  0.662500
N907  N  0.464153  0.490363  0.737500
N908  N  0.464153  0.490363  0.812500
N909  N  0.464153  0.490363  0.887500
N910  N  0.464153  0.490363  0.962500
N911  N  0.464153  0.565803  0.062500
N912  N  0.464153  0.565803  0.137500
N913  N  0.464153  0.565803  0.212500
N914  N  0.464153  0.565803  0.287500
N915  N  0.464153  0.565803  0.362500
N916  N  0.464153  0.565803  0.437500
N917  N  0.464153  0.565803  0.512500
N918  N  0.464153  0.565803  0.587500
N919  N  0.464153  0.565803  0.662500
N920  N  0.464153  0.565803  0.737500
N921  N  0.464153  0.565803  0.812500
N922  N  0.464153  0.565803  0.887500
N923  N  0.464153  0.565803  0.962500
N924  N  0.464153  0.641244  0.062500
N925  N  0.464153  0.641244  0.137500
N926  N  0.464153  0.641244  0.212500
N927  N  0.464153  0.641244  0.287500
N928  N  0.464153  0.641244  0.362500
N929  N  0.464153  0.641244  0.437500
N930  N  0.464153  0.641244  0.512500
N931  N  0.464153  0.641244  0.587500
N932  N  0.464153  0.641244  0.662500
N933  N  0.464153  0.641244  0.737500
N934  N  0.464153  0.641244  0.812500
N935  N  0.464153  0.641244  0.887500
N936  N  0.464153  0.641244  0.962500
N937  N  0.601680  0.339482  0.062500
N938  N  0.601680  0.339482  0.137500
N939  N  0.601680  0.339482  0.212500
N940  N  0.601680  0.339482  0.287500
N941  N  0.601680  0.339482  0.362500
N942  N  0.601680  0.339482  0.437500
N943  N  0.601680  0.339482  0.512500
N944  N  0.601680  0.339482  0.587500
N945  N  0.601680  0.339482  0.662500
N946  N  0.601680  0.339482  0.737500
N947  N  0.601680  0.339482  0.812500
N948  N  0.601680  0.339482  0.887500
N949  N  0.601680  0.339482  0.962500
N950  N  0.601680  0.414922  0.062500
N951  N  0.601680  0.414922  0.137500
N952  N  0.601680  0.414922  0.212500
N953  N  0.601680  0.414922  0.287500
N954  N  0.601680  0.414922  0.362500
N955  N  0.601680  0.414922  0.437500
N956  N  0.601680  0.414922  0.512500
N957  N  0.601680  0.414922  0.587500
N958  N  0.601680  0.414922  0.662500
N959  N  0.601680  0.414922  0.737500
N960  N  0.601680  0.414922  0.812500
N961  N  0.601680  0.414922  0.887500
N962  N  0.601680  0.414922  0.962500
N963  N  0.601680  0.490363  0.062500
N964  N  0.601680  0.490363  0.137500
N965  N  0.601680  0.490363  0.212500
N966  N  0.601680  0.490363  0.287500
N967  N  0.601680  0.490363  0.362500
N968  N  0.601680  0.490363  0.437500
N969  N  0.601680  0.490363  0.512500
N970  N  0.601680  0.490363  0.587500
N971  N  0.601680  0.490363  0.662500
N972  N  0.601680  0.490363  0.737500
N973  N  0.601680  0.490363  0.812500
N974  N  0.601680  0.490363  0.887500
N975  N  0.601680  0.490363  0.962500
N976  N  0.601680  0.565803  0.062500
N977  N  0.601680  0.565803  0.137500
N978  N  0.601680  0.565803  0.212500
N979  N  0.601680  0.565803  0.287500
N980  N  0.601680  0.565803  0.362500
N981  N  0.601680  0.565803  0.437500
N982  N  0.601680  0.565803  0.512500
N983  N  0.601680  0.565803  0.587500
N984  N  0.601680  0.565803  0.662500
N985  N  0.601680  0.565803  0.737500
N986  N  0.601680  0.565803  0.812500
N987  N  0.601680  0.565803  0.887500
N988  N  0.601680  0.565803  0.962500
N989  N  0.739207  0.414922  0.062500
N990  N  0.739207  0.414922  0.137500
N991  N  0.739207  0.414922  0.212500
N992  N  0.739207  0.414922  0.287500
N993  N  0.739207  0.414922  0.362500
N994  N  0.739207  0.414922  0.437500
N995  N  0.739207  0.414922  0.512500
N996  N  0.739207  0.414922  0.587500
N997  N  0.739207  0.414922  0.662500
N998  N  0.739207  0.414922  0.737500
N999  N  0.739207  0.414922  0.812500
N1000  N  0.739207  0.414922  0.887500
N1001  N  0.739207  0.414922  0.962500
N1002  N  0.739207  0.490363  0.062500
N1003  N  0.739207  0.490363  0.137500
N1004  N  0.739207  0.490363  0.212500
N1005  N  0.739207  0.490363  0.287500
N1006  N  0.739207  0.490363  0.362500
N1007  N  0.739207  0.490363  0.437500
N1008  N  0.739207  0.490363  0.512500
N1009  N  0.739207  0.490363  0.587500
N1010  N  0.739207  0.490363  0.662500
N1011  N  0.739207  0.490363  0.737500
N1012  N  0.739207  0.490363  0.812500
N1013  N  0.739207  0.490363  0.887500
N1014  N  0.739207  0.490363  0.962500
N1015  N  0.120336  0.075440  0.050000
N1016  N  0.120336  0.075440  0.125000
N1017  N  0.120336  0.075440  0.200000
N1018  N  0.120336  0.075440  0.275000
N1019  N  0.120336  0.075440  0.350000
N1020  N  0.120336  0.075440  0.425000
N1021  N  0.120336  0.075440  0.500000
N1022  N  0.120336  0.075440  0.575000
N1023  N  0.120336  0.075440  0.650000
N1024  N  0.120336  0.075440  0.725000
N1025  N  0.120336  0.075440  0.800000
N1026  N  0.120336  0.075440  0.875000
N1027  N  0.120336  0.075440  0.950000
N1028  N  0.120336  0.150881  0.050000
N1029  N  0.120336  0.150881  0.125000
N1030  N  0.120336  0.150881  0.200000
N1031  N  0.120336  0.150881  0.275000
N1032  N  0.120336  0.150881  0.350000
N1033  N  0.120336  0.150881  0.425000
N1034  N  0.120336  0.150881  0.500000
N1035  N  0.120336  0.150881  0.575000
N1036  N  0.120336  0.150881  0.650000
N1037  N  0.120336  0.150881  0.725000
N1038  N  0.120336  0.150881  0.800000
N1039  N  0.120336  0.150881  0.875000
N1040  N  0.120336  0.150881  0.950000
N1041  N  0.120336  0.226321  0.050000
N1042  N  0.120336  0.226321  0.125000
N1043  N  0.120336  0.226321  0.200000
N1044  N  0.120336  0.226321  0.275000
N1045  N  0.120336  0.226321  0.350000
N1046  N  0.120336  0.226321  0.425000
N1047  N  0.120336  0.226321  0.500000
N1048  N  0.120336  0.226321  0.575000
N1049  N  0.120336  0.226321  0.650000
N1050  N  0.120336  0.226321  0.725000
N1051  N  0.120336  0.226321  0.800000
N1052  N  0.120336  0.226321  0.875000
N1053  N  0.120336  0.226321  0.950000
N1054  N  0.120336  0.301762  0.050000
N1055  N  0.120336  0.301762  0.125000
N1056  N  0.120336  0.301762  0.200000
N1057  N  0.120336  0.301762  0.275000
N1058  N  0.120336  0.301762  0.350000
N1059  N  0.120336  0.301762  0.425000
N1060  N  0.120336  0.301762  0.500000
N1061  N  0.120336  0.301762  0.575000
N1062  N  0.120336  0.301762  0.650000
N1063  N  0.120336  0.301762  0.725000
N1064  N  0.120336  0.301762  0.800000
N1065  N  0.120336  0.301762  0.875000
N1066  N  0.120336  0.301762  0.950000
N1067  N  0.120336  0.377202  0.050000
N1068  N  0.120336  0.377202  0.125000
N1069  N  0.120336  0.377202  0.200000
N1070  N  0.120336  0.377202  0.275000
N1071  N  0.120336  0.377202  0.350000
N1072  N  0.120336  0.377202  0.425000
N1073  N  0.120336  0.377202  0.500000
N1074  N  0.120336  0.377202  0.575000
N1075  N  0.120336  0.377202  0.650000
N1076  N  0.120336  0.377202  0.725000
N1077  N  0.120336  0.377202  0.800000
N1078  N  0.120336  0.377202  0.875000
N1079  N  0.120336  0.377202  0.950000
N1080  N  0.120336  0.452643  0.050000
N1081  N  0.120336  0.452643  0.125000
N1082  N  0.120336  0.452643  0.200000
N1083  N  0.120336  0.452643  0.275000
N1084  N  0.120336  0.452643  0.350000
N1085  N  0.120336  0.452643  0.425000
N1086  N  0.120336  0.452643  0.500000
N1087  N  0.120336  0.452643  0.575000
N1088  N  0.120336  0.452643  0.650000
N1089  N  0.120336  0.452643  0.725000
N1090  N  0.120336  0.452643  0.800000
N1091  N  0.120336  0.452643  0.875000
N1092  N  0.120336  0.452643  0.950000
N1093  N  0.120336  0.528083  0.050000
N1094  N  0.120336  0.528083  0.125000
N1095  N  0.120336  0.528083  0.200000
N1096  N  0.120336  0.528083  0.275000
N1097  N  0.120336  0.528083  0.350000
N1098  N  0.120336  0.528083  0.425000
N1099  N  0.120336  0.528083  0.500000
N1100  N  0.120336  0.528083  0.575000
N1101  N  0.120336  0.528083  0.650000
N1102  N  0.120336  0.528083  0.725000
N1103  N  0.120336  0.528083  0.800000
N1104  N  0.120336  0.528083  0.875000
N1105  N  0.120336  0.528083  0.950000
N1106  N  0.120336  0.603523  0.050000
N1107  N  0.120336  0.603523  0.125000
N1108  N  0.120336  0.603523  0.200000
N1109  N  0.120336  0.603523  0.275000
N1110  N  0.120336  0.603523  0.350000
N1111  N  0.120336  0.603523  0.425000
N1112  N  0.120336  0.603523  0.500000
N1113  N  0.120336  0.603523  0.575000
N1114  N  0.120336  0.603523  0.650000
N1115  N  0.120336  0.603523  0.725000
N1116  N  0.120336  0.603523  0.800000
N1117  N  0.120336  0.603523  0.875000
N1118  N  0.120336  0.603523  0.950000
N1119  N  0.120336  0.678964  0.050000
N1120  N  0.120336  0.678964  0.125000
N1121  N  0.120336  0.678964  0.200000
N1122  N  0.120336  0.678964  0.275000
N1123  N  0.120336  0.678964  0.350000
N1124  N  0.120336  0.678964  0.425000
N1125  N  0.120336  0.678964  0.500000
N1126  N  0.120336  0.678964  0.575000
N1127  N  0.120336  0.678964  0.650000
N1128  N  0.120336  0.678964  0.725000
N1129  N  0.120336  0.678964  0.800000
N1130  N  0.120336  0.678964  0.875000
N1131  N  0.120336  0.678964  0.950000
N1132  N  0.120336  0.754404  0.050000
N1133  N  0.120336  0.754404  0.125000
N1134  N  0.120336  0.754404  0.200000
N1135  N  0.120336  0.754404  0.275000
N1136  N  0.120336  0.754404  0.350000
N1137  N  0.120336  0.754404  0.425000
N1138  N  0.120336  0.754404  0.500000
N1139  N  0.120336  0.754404  0.575000
N1140  N  0.120336  0.754404  0.650000
N1141  N  0.120336  0.754404  0.725000
N1142  N  0.120336  0.754404  0.800000
N1143  N  0.120336  0.754404  0.875000
N1144  N  0.120336  0.754404  0.950000
N1145  N  0.120336  0.829845  0.050000
N1146  N  0.120336  0.829845  0.125000
N1147  N  0.120336  0.829845  0.200000
N1148  N  0.120336  0.829845  0.275000
N1149  N  0.120336  0.829845  0.350000
N1150  N  0.120336  0.829845  0.425000
N1151  N  0.120336  0.829845  0.500000
N1152  N  0.120336  0.829845  0.575000
N1153  N  0.120336  0.829845  0.650000
N1154  N  0.120336  0.829845  0.725000
N1155  N  0.120336  0.829845  0.800000
N1156  N  0.120336  0.829845  0.875000
N1157  N  0.120336  0.829845  0.950000
N1158  N  0.257863  0.150881  0.050000
N1159  N  0.257863  0.150881  0.125000
N1160  N  0.257863  0.150881  0.200000
N1161  N  0.257863  0.150881  0.275000
N1162  N  0.257863  0.150881  0.350000
N1163  N  0.257863  0.150881  0.425000
N1164  N  0.257863  0.150881  0.500000
N1165  N  0.257863  0.150881  0.575000
N1166  N  0.257863  0.150881  0.650000
N1167  N  0.257863  0.150881  0.725000
N1168  N  0.257863  0.150881  0.800000
N1169  N  0.257863  0.150881  0.875000
N1170  N  0.257863  0.150881  0.950000
N1171  N  0.257863  0.226321  0.050000
N1172  N  0.257863  0.226321  0.125000
N1173  N  0.257863  0.226321  0.200000
N1174  N  0.257863  0.226321  0.275000
N1175  N  0.257863  0.226321  0.350000
N1176  N  0.257863  0.226321  0.425000
N1177  N  0.257863  0.226321  0.500000
N1178  N  0.257863  0.226321  0.575000
N1179  N  0.257863  0.226321  0.650000
N1180  N  0.257863  0.226321  0.725000
N1181  N  0.257863  0.226321  0.800000
N1182  N  0.257863  0.226321  0.875000
N1183  N  0.257863  0.226321  0.950000
N1184  N  0.257863  0.301762  0.050000
N1185  N  0.257863  0.301762  0.125000
N1186  N  0.257863  0.301762  0.200000
N1187  N  0.257863  0.301762  0.275000
N1188  N  0.257863  0.301762  0.350000
N1189  N  0.257863  0.301762  0.425000
N1190  N  0.257863  0.301762  0.500000
N1191  N  0.257863  0.301762  0.575000
N1192  N  0.257863  0.301762  0.650000
N1193  N  0.257863  0.301762  0.725000
N1194  N  0.257863  0.301762  0.800000
N1195  N  0.257863  0.301762  0.875000
N1196  N  0.257863  0.301762  0.950000
N1197  N  0.257863  0.377202  0.050000
N1198  N  0.257863  0.377202  0.125000
N1199  N  0.257863  0.377202  0.200000
N1200  N  0.257863  0.377202  0.275000
N1201  N  0.257863  0.377202  0.350000
N1202  N  0.257863  0.377202  0.425000
N1203  N  0.257863  0.377202  0.500000
N1204  N  0.257863  0.377202  0.575000
N1205  N  0.257863  0.377202  0.650000
N1206  N  0.257863  0.377202  0.725000
N1207  N  0.257863  0.377202  0.800000
N1208  N  0.257863  0.377202  0.875000
N1209  N  0.257863  0.377202  0.950000
N1210  N  0.257863  0.452643  0.050000
N1211  N  0.257863  0.452643  0.125000
N1212  N  0.257863  0.452643  0.200000
N1213  N  0.257863  0.452643  0.275000
N1214  N  0.257863  0.452643  0.350000
N1215  N  0.257863  0.452643  0.425000
N1216  N  0.257863  0.452643  0.500000
N1217  N  0.257863  0.452643  0.575000
N1218  N  0.257863  0.452643  0.650000
N1219  N  0.257863  0.452643  0.725000
N1220  N  0.257863  0.452643  0.800000
N1221  N  0.257863  0.452643  0.875000
N1222  N  0.257863  0.452643  0.950000
N1223  N  0.257863  0.528083  0.050000
N1224  N  0.257863  0.528083  0.125000
N1225  N  0.257863  0.528083  0.200000
N1226  N  0.257863  0.528083  0.275000
N1227  N  0.257863  0.528083  0.350000
N1228  N  0.257863  0.528083  0.425000
N1229  N  0.257863  0.528083  0.500000
N1230  N  0.257863  0.528083  0.575000
N1231  N  0.257863  0.528083  0.650000
N1232  N  0.257863  0.528083  0.725000
N1233  N  0.257863  0.528083  0.800000
N1234  N  0.257863  0.528083  0.875000
N1235  N  0.257863  0.528083  0.950000
N1236  N  0.257863  0.603523  0.050000
N1237  N  0.257863  0.603523  0.125000
N1238  N  0.257863  0.603523  0.200000
N1239  N  0.257863  0.603523  0.275000
N1240  N  0.257863  0.603523  0.350000
N1241  N  0.257863  0.603523  0.425000
N1242  N  0.257863  0.603523  0.500000
N1243  N  0.257863  0.603523  0.575000
N1244  N  0.257863  0.603523  0.650000
N1245  N  0.257863  0.603523  0.725000
N1246  N  0.257863  0.603523  0.800000
N1247  N  0.257863  0.603523  0.875000
N1248  N  0.257863  0.603523  0.950000
N1249  N  0.257863  0.678964  0.050000
N1250  N  0.257863  0.678964  0.125000
N1251  N  0.257863  0.678964  0.200000
N1252  N  0.257863  0.678964  0.275000
N1253  N  0.257863  0.678964  0.350000
N1254  N  0.257863  0.678964  0.425000
N1255  N  0.257863  0.678964  0.500000
N1256  N  0.257863  0.678964  0.575000
N1257  N  0.257863  0.678964  0.650000
N1258  N  0.257863  0.678964  0.725000
N1259  N  0.257863  0.678964  0.800000
N1260  N  0.257863  0.678964  0.875000
N1261  N  0.257863  0.678964  0.950000
N1262  N  0.257863  0.754404  0.050000
N1263  N  0.257863  0.754404  0.125000
N1264  N  0.257863  0.754404  0.200000
N1265  N  0.257863  0.754404  0.275000
N1266  N  0.257863  0.754404  0.350000
N1267  N  0.257863  0.754404  0.425000
N1268  N  0.257863  0.754404  0.500000
N1269  N  0.257863  0.754404  0.575000
N1270  N  0.257863  0.754404  0.650000
N1271  N  0.257863  0.754404  0.725000
N1272  N  0.257863  0.754404  0.800000
N1273  N  0.257863  0.754404  0.875000
N1274  N  0.257863  0.754404  0.950000
N1275  N  0.395390  0.226321  0.050000
N1276  N  0.395390  0.226321  0.125000
N1277  N  0.395390  0.226321  0.200000
N1278  N  0.395390  0.226321  0.275000
N1279  N  0.395390  0.226321  0.350000
N1280  N  0.395390  0.226321  0.425000
N1281  N  0.395390  0.226321  0.500000
N1282  N  0.395390  0.226321  0.575000
N1283  N  0.395390  0.226321  0.650000
N1284  N  0.395390  0.226321  0.725000
N1285  N  0.395390  0.226321  0.800000
N1286  N  0.395390  0.226321  0.875000
N1287  N  0.395390  0.226321  0.950000
N1288  N  0.395390  0.301762  0.050000
N1289  N  0.395390  0.301762  0.125000
N1290  N  0.395390  0.301762  0.200000
N1291  N  0.395390  0.301762  0.275000
N1292  N  0.395390  0.301762  0.350000
N1293  N  0.395390  0.301762  0.425000
N1294  N  0.395390  0.301762  0.500000
N1295  N  0.395390  0.301762  0.575000
N1296  N  0.395390  0.301762  0.650000
N1297  N  0.395390  0.301762  0.725000
N1298  N  0.395390  0.301762  0.800000
N1299  N  0.395390  0.301762  0.875000
N1300  N  0.395390  0.301762  0.950000
N1301  N  0.395390  0.377202  0.050000
N1302  N  0.395390  0.377202  0.125000
N1303  N  0.395390  0.377202  0.200000
N1304  N  0.395390  0.377202  0.275000
N1305  N  0.395390  0.377202  0.350000
N1306  N  0.395390  0.377202  0.425000
N1307  N  0.395390  0.377202  0.500000
N1308  N  0.395390  0.377202  0.575000
N1309  N  0.395390  0.377202  0.650000
N1310  N  0.395390  0.377202  0.725000
N1311  N  0.395390  0.377202  0.800000
N1312  N  0.395390  0.377202  0.875000
N1313  N  0.395390  0.377202  0.950000
N1314  N  0.395390  0.452643  0.050000
N1315  N  0.395390  0.452643  0.125000
N1316  N  0.395390  0.452643  0.200000
N1317  N  0.395390  0.452643  0.275000
N1318  N  0.395390  0.452643  0.350000
N1319  N  0.395390  0.452643  0.425000
N1320  N  0.395390  0.452643  0.500000
N1321  N  0.395390  0.452643  0.575000
N1322  N  0.395390  0.452643  0.650000
N1323  N  0.395390  0.452643  0.725000
N1324  N  0.395390  0.452643  0.800000
N1325  N  0.395390  0.452643  0.875000
N1326  N  0.395390  0.452643  0.950000
N1327  N  0.395390  0.528083  0.050000
N1328  N  0.395390  0.528083  0.125000
N1329  N  0.395390  0.528083  0.200000
N1330  N  0.395390  0.528083  0.275000
N1331  N  0.395390  0.528083  0.350000
N1332  N  0.395390  0.528083  0.425000
N1333  N  0.395390  0.528083  0.500000
N1334  N  0.395390  0.528083  0.575000
N1335  N  0.395390  0.528083  0.650000
N1336  N  0.395390  0.528083  0.725000
N1337  N  0.395390  0.528083  0.800000
N1338  N  0.395390  0.528083  0.875000
N1339  N  0.395390  0.528083  0.950000
N1340  N  0.395390  0.603523  0.050000
N1341  N  0.395390  0.603523  0.125000
N1342  N  0.395390  0.603523  0.200000
N1343  N  0.395390  0.603523  0.275000
N1344  N  0.395390  0.603523  0.350000
N1345  N  0.395390  0.603523  0.425000
N1346  N  0.395390  0.603523  0.500000
N1347  N  0.395390  0.603523  0.575000
N1348  N  0.395390  0.603523  0.650000
N1349  N  0.395390  0.603523  0.725000
N1350  N  0.395390  0.603523  0.800000
N1351  N  0.395390  0.603523  0.875000
N1352  N  0.395390  0.603523  0.950000
N1353  N  0.395390  0.678964  0.050000
N1354  N  0.395390  0.678964  0.125000
N1355  N  0.395390  0.678964  0.200000
N1356  N  0.395390  0.678964  0.275000
N1357  N  0.395390  0.678964  0.350000
N1358  N  0.395390  0.678964  0.425000
N1359  N  0.395390  0.678964  0.500000
N1360  N  0.395390  0.678964  0.575000
N1361  N  0.395390  0.678964  0.650000
N1362  N  0.395390  0.678964  0.725000
N1363  N  0.395390  0.678964  0.800000
N1364  N  0.395390  0.678964  0.875000
N1365  N  0.395390  0.678964  0.950000
N1366  N  0.532917  0.301762  0.050000
N1367  N  0.532917  0.301762  0.125000
N1368  N  0.532917  0.301762  0.200000
N1369  N  0.532917  0.301762  0.275000
N1370  N  0.532917  0.301762  0.350000
N1371  N  0.532917  0.301762  0.425000
N1372  N  0.532917  0.301762  0.500000
N1373  N  0.532917  0.301762  0.575000
N1374  N  0.532917  0.301762  0.650000
N1375  N  0.532917  0.301762  0.725000
N1376  N  0.532917  0.301762  0.800000
N1377  N  0.532917  0.301762  0.875000
N1378  N  0.532917  0.301762  0.950000
N1379  N  0.532917  0.377202  0.050000
N1380  N  0.532917  0.377202  0.125000
N1381  N  0.532917  0.377202  0.200000
N1382  N  0.532917  0.377202  0.275000
N1383  N  0.532917  0.377202  0.350000
N1384  N  0.532917  0.377202  0.425000
N1385  N  0.532917  0.377202  0.500000
N1386  N  0.532917  0.377202  0.575000
N1387  N  0.532917  0.377202  0.650000
N1388  N  0.532917  0.377202  0.725000
N1389  N  0.532917  0.377202  0.800000
N1390  N  0.532917  0.377202  0.875000
N1391  N  0.532917  0.377202  0.950000
N1392  N  0.532917  0.452643  0.050000
N1393  N  0.532917  0.452643  0.125000
N1394  N  0.532917  0.452643  0.200000
N1395  N  0.532917  0.452643  0.275000
N1396  N  0.532917  0.452643  0.350000
N1397  N  0.532917  0.452643  0.425000
N1398  N  0.532917  0.452643  0.500000
N1399  N  0.532917  0.452643  0.575000
N1400  N  0.532917  0.452643  0.650000
N1401  N  0.532917  0.452643  0.725000
N1402  N  0.532917  0.452643  0.800000
N1403  N  0.532917  0.452643  0.875000
N1404  N  0.532917  0.452643  0.950000
N1405  N  0.532917  0.528083  0.050000
N1406  N  0.532917  0.528083  0.125000
N1407  N  0.532917  0.528083  0.200000
N1408  N  0.532917  0.528083  0.275000
N1409  N  0.532917  0.528083  0.350000
N1410  N  0.532917  0.528083  0.425000
N1411  N  0.532917  0.528083  0.500000
N1412  N  0.532917  0.528083  0.575000
N1413  N  0.532917  0.528083  0.650000
N1414  N  0.532917  0.528083  0.725000
N1415  N  0.532917  0.528083  0.800000
N1416  N  0.532917  0.528083  0.875000
N1417  N  0.532917  0.528083  0.950000
N1418  N  0.532917  0.603523  0.050000
N1419  N  0.532917  0.603523  0.125000
N1420  N  0.532917  0.603523  0.200000
N1421  N  0.532917  0.603523  0.275000
N1422  N  0.532917  0.603523  0.350000
N1423  N  0.532917  0.603523  0.425000
N1424  N  0.532917  0.603523  0.500000
N1425  N  0.532917  0.603523  0.575000
N1426  N  0.532917  0.603523  0.650000
N1427  N  0.532917  0.603523  0.725000
N1428  N  0.532917  0.603523  0.800000
N1429  N  0.532917  0.603523  0.875000
N1430  N  0.532917  0.603523  0.950000
N1431  N  0.670443  0.377202  0.050000
N1432  N  0.670443  0.377202  0.125000
N1433  N  0.670443  0.377202  0.200000
N1434  N  0.670443  0.377202  0.275000
N1435  N  0.670443  0.377202  0.350000
N1436  N  0.670443  0.377202  0.425000
N1437  N  0.670443  0.377202  0.500000
N1438  N  0.670443  0.377202  0.575000
N1439  N  0.670443  0.377202  0.650000
N1440  N  0.670443  0.377202  0.725000
N1441  N  0.670443  0.377202  0.800000
N1442  N  0.670443  0.377202  0.875000
N1443  N  0.670443  0.377202  0.950000
N1444  N  0.670443  0.452643  0.050000
N1445  N  0.670443  0.452643  0.125000
N1446  N  0.670443  0.452643  0.200000
N1447  N  0.670443  0.452643  0.275000
N1448  N  0.670443  0.452643  0.350000
N1449  N  0.670443  0.452643  0.425000
N1450  N  0.670443  0.452643  0.500000
N1451  N  0.670443  0.452643  0.575000
N1452  N  0.670443  0.452643  0.650000
N1453  N  0.670443  0.452643  0.725000
N1454  N  0.670443  0.452643  0.800000
N1455  N  0.670443  0.452643  0.875000
N1456  N  0.670443  0.452643  0.950000
N1457  N  0.670443  0.528083  0.050000
N1458  N  0.670443  0.528083  0.125000
N1459  N  0.670443  0.528083  0.200000
N1460  N  0.670443  0.528083  0.275000
N1461  N  0.670443  0.528083  0.350000
N1462  N  0.670443  0.528083  0.425000
N1463  N  0.670443  0.528083  0.500000
N1464  N  0.670443  0.528083  0.575000
N1465  N  0.670443  0.528083  0.650000
N1466  N  0.670443  0.528083  0.725000
N1467  N  0.670443  0.528083  0.800000
N1468  N  0.670443  0.528083  0.875000
N1469  N  0.670443  0.528083  0.950000
N1470  N  0.807970  0.452643  0.050000
N1471  N  0.807970  0.452643  0.125000
N1472  N  0.807970  0.452643  0.200000
N1473  N  0.807970  0.452643  0.275000
N1474  N  0.807970  0.452643  0.350000
N1475  N  0.807970  0.452643  0.425000
N1476  N  0.807970  0.452643  0.500000
N1477  N  0.807970  0.452643  0.575000
N1478  N  0.807970  0.452643  0.650000
N1479  N  0.807970  0.452643  0.725000
N1480  N  0.807970  0.452643  0.800000
N1481  N  0.807970  0.452643  0.875000
N1482  N  0.807970  0.452643  0.950000
N1483  N  0.120336  0.113161  0.012500
N1484  N  0.120336  0.113161  0.087500
N1485  N  0.120336  0.113161  0.162500
N1486  N  0.120336  0.113161  0.237500
N1487  N  0.120336  0.113161  0.312500
N1488  N  0.120336  0.113161  0.387500
N1489  N  0.120336  0.113161  0.462500
N1490  N  0.120336  0.113161  0.537500
N1491  N  0.120336  0.113161  0.612500
N1492  N  0.120336  0.113161  0.687500
N1493  N  0.120336  0.113161  0.762500
N1494  N  0.120336  0.113161  0.837500
N1495  N  0.120336  0.113161  0.912500
N1496  N  0.120336  0.188601  0.012500
N1497  N  0.120336  0.188601  0.087500
N1498  N  0.120336  0.188601  0.162500
N1499  N  0.120336  0.188601  0.237500
N1500  N  0.120336  0.188601  0.312500
N1501  N  0.120336  0.188601  0.387500
N1502  N  0.120336  0.188601  0.462500
N1503  N  0.120336  0.188601  0.537500
N1504  N  0.120336  0.188601  0.612500
N1505  N  0.120336  0.188601  0.687500
N1506  N  0.120336  0.188601  0.762500
N1507  N  0.120336  0.188601  0.837500
N1508  N  0.120336  0.188601  0.912500
N1509  N  0.120336  0.264041  0.012500
N1510  N  0.120336  0.264041  0.087500
N1511  N  0.120336  0.264041  0.162500
N1512  N  0.120336  0.264041  0.237500
N1513  N  0.120336  0.264041  0.312500
N1514  N  0.120336  0.264041  0.387500
N1515  N  0.120336  0.264041  0.462500
N1516  N  0.120336  0.264041  0.537500
N1517  N  0.120336  0.264041  0.612500
N1518  N  0.120336  0.264041  0.687500
N1519  N  0.120336  0.264041  0.762500
N1520  N  0.120336  0.264041  0.837500
N1521  N  0.120336  0.264041  0.912500
N1522  N  0.120336  0.339482  0.012500
N1523  N  0.120336  0.339482  0.087500
N1524  N  0.120336  0.339482  0.162500
N1525  N  0.120336  0.339482  0.237500
N1526  N  0.120336  0.339482  0.312500
N1527  N  0.120336  0.339482  0.387500
N1528  N  0.120336  0.339482  0.462500
N1529  N  0.120336  0.339482  0.537500
N1530  N  0.120336  0.339482  0.612500
N1531  N  0.120336  0.339482  0.687500
N1532  N  0.120336  0.339482  0.762500
N1533  N  0.120336  0.339482  0.837500
N1534  N  0.120336  0.339482  0.912500
N1535  N  0.120336  0.414922  0.012500
N1536  N  0.120336  0.414922  0.087500
N1537  N  0.120336  0.414922  0.162500
N1538  N  0.120336  0.414922  0.237500
N1539  N  0.120336  0.414922  0.312500
N1540  N  0.120336  0.414922  0.387500
N1541  N  0.120336  0.414922  0.462500
N1542  N  0.120336  0.414922  0.537500
N1543  N  0.120336  0.414922  0.612500
N1544  N  0.120336  0.414922  0.687500
N1545  N  0.120336  0.414922  0.762500
N1546  N  0.120336  0.414922  0.837500
N1547  N  0.120336  0.414922  0.912500
N1548  N  0.120336  0.490363  0.012500
N1549  N  0.120336  0.490363  0.087500
N1550  N  0.120336  0.490363  0.162500
N1551  N  0.120336  0.490363  0.237500
N1552  N  0.120336  0.490363  0.312500
N1553  N  0.120336  0.490363  0.387500
N1554  N  0.120336  0.490363  0.462500
N1555  N  0.120336  0.490363  0.537500
N1556  N  0.120336  0.490363  0.612500
N1557  N  0.120336  0.490363  0.687500
N1558  N  0.120336  0.490363  0.762500
N1559  N  0.120336  0.490363  0.837500
N1560  N  0.120336  0.490363  0.912500
N1561  N  0.120336  0.565803  0.012500
N1562  N  0.120336  0.565803  0.087500
N1563  N  0.120336  0.565803  0.162500
N1564  N  0.120336  0.565803  0.237500
N1565  N  0.120336  0.565803  0.312500
N1566  N  0.120336  0.565803  0.387500
N1567  N  0.120336  0.565803  0.462500
N1568  N  0.120336  0.565803  0.537500
N1569  N  0.120336  0.565803  0.612500
N1570  N  0.120336  0.565803  0.687500
N1571  N  0.120336  0.565803  0.762500
N1572  N  0.120336  0.565803  0.837500
N1573  N  0.120336  0.565803  0.912500
N1574  N  0.120336  0.641244  0.012500
N1575  N  0.120336  0.641244  0.087500
N1576  N  0.120336  0.641244  0.162500
N1577  N  0.120336  0.641244  0.237500
N1578  N  0.120336  0.641244  0.312500
N1579  N  0.120336  0.641244  0.387500
N1580  N  0.120336  0.641244  0.462500
N1581  N  0.120336  0.641244  0.537500
N1582  N  0.120336  0.641244  0.612500
N1583  N  0.120336  0.641244  0.687500
N1584  N  0.120336  0.641244  0.762500
N1585  N  0.120336  0.641244  0.837500
N1586  N  0.120336  0.641244  0.912500
N1587  N  0.120336  0.716684  0.012500
N1588  N  0.120336  0.716684  0.087500
N1589  N  0.120336  0.716684  0.162500
N1590  N  0.120336  0.716684  0.237500
N1591  N  0.120336  0.716684  0.312500
N1592  N  0.120336  0.716684  0.387500
N1593  N  0.120336  0.716684  0.462500
N1594  N  0.120336  0.716684  0.537500
N1595  N  0.120336  0.716684  0.612500
N1596  N  0.120336  0.716684  0.687500
N1597  N  0.120336  0.716684  0.762500
N1598  N  0.120336  0.716684  0.837500
N1599  N  0.120336  0.716684  0.912500
N1600  N  0.120336  0.792124  0.012500
N1601  N  0.120336  0.792124  0.087500
N1602  N  0.120336  0.792124  0.162500
N1603  N  0.120336  0.792124  0.237500
N1604  N  0.120336  0.792124  0.312500
N1605  N  0.120336  0.792124  0.387500
N1606  N  0.120336  0.792124  0.462500
N1607  N  0.120336  0.792124  0.537500
N1608  N  0.120336  0.792124  0.612500
N1609  N  0.120336  0.792124  0.687500
N1610  N  0.120336  0.792124  0.762500
N1611  N  0.120336  0.792124  0.837500
N1612  N  0.120336  0.792124  0.912500
N1613  N  0.257863  0.188601  0.012500
N1614  N  0.257863  0.188601  0.087500
N1615  N  0.257863  0.188601  0.162500
N1616  N  0.257863  0.188601  0.237500
N1617  N  0.257863  0.188601  0.312500
N1618  N  0.257863  0.188601  0.387500
N1619  N  0.257863  0.188601  0.462500
N1620  N  0.257863  0.188601  0.537500
N1621  N  0.257863  0.188601  0.612500
N1622  N  0.257863  0.188601  0.687500
N1623  N  0.257863  0.188601  0.762500
N1624  N  0.257863  0.188601  0.837500
N1625  N  0.257863  0.188601  0.912500
N1626  N  0.257863  0.264041  0.012500
N1627  N  0.257863  0.264041  0.087500
N1628  N  0.257863  0.264041  0.162500
N1629  N  0.257863  0.264041  0.237500
N1630  N  0.257863  0.264041  0.312500
N1631  N  0.257863  0.264041  0.387500
N1632  N  0.257863  0.264041  0.462500
N1633  N  0.257863  0.264041  0.537500
N1634  N  0.257863  0.264041  0.612500
N1635  N  0.257863  0.264041  0.687500
N1636  N  0.257863  0.264041  0.762500
N1637  N  0.257863  0.264041  0.837500
N1638  N  0.257863  0.264041  0.912500
N1639  N  0.257863  0.339482  0.012500
N1640  N  0.257863  0.339482  0.087500
N1641  N  0.257863  0.339482  0.162500
N1642  N  0.257863  0.339482  0.237500
N1643  N  0.257863  0.339482  0.312500
N1644  N  0.257863  0.339482  0.387500
N1645  N  0.257863  0.339482  0.462500
N1646  N  0.257863  0.339482  0.537500
N1647  N  0.257863  0.339482  0.612500
N1648  N  0.257863  0.339482  0.687500
N1649  N  0.257863  0.339482  0.762500
N1650  N  0.257863  0.339482  0.837500
N1651  N  0.257863  0.339482  0.912500
N1652  N  0.257863  0.414922  0.012500
N1653  N  0.257863  0.414922  0.087500
N1654  N  0.257863  0.414922  0.162500
N1655  N  0.257863  0.414922  0.237500
N1656  N  0.257863  0.414922  0.312500
N1657  N  0.257863  0.414922  0.387500
N1658  N  0.257863  0.414922  0.462500
N1659  N  0.257863  0.414922  0.537500
N1660  N  0.257863  0.414922  0.612500
N1661  N  0.257863  0.414922  0.687500
N1662  N  0.257863  0.414922  0.762500
N1663  N  0.257863  0.414922  0.837500
N1664  N  0.257863  0.414922  0.912500
N1665  N  0.257863  0.490363  0.012500
N1666  N  0.257863  0.490363  0.087500
N1667  N  0.257863  0.490363  0.162500
N1668  N  0.257863  0.490363  0.237500
N1669  N  0.257863  0.490363  0.312500
N1670  N  0.257863  0.490363  0.387500
N1671  N  0.257863  0.490363  0.462500
N1672  N  0.257863  0.490363  0.537500
N1673  N  0.257863  0.490363  0.612500
N1674  N  0.257863  0.490363  0.687500
N1675  N  0.257863  0.490363  0.762500
N1676  N  0.257863  0.490363  0.837500
N1677  N  0.257863  0.490363  0.912500
N1678  N  0.257863  0.565803  0.012500
N1679  N  0.257863  0.565803  0.087500
N1680  N  0.257863  0.565803  0.162500
N1681  N  0.257863  0.565803  0.237500
N1682  N  0.257863  0.565803  0.312500
N1683  N  0.257863  0.565803  0.387500
N1684  N  0.257863  0.565803  0.462500
N1685  N  0.257863  0.565803  0.537500
N1686  N  0.257863  0.565803  0.612500
N1687  N  0.257863  0.565803  0.687500
N1688  N  0.257863  0.565803  0.762500
N1689  N  0.257863  0.565803  0.837500
N1690  N  0.257863  0.565803  0.912500
N1691  N  0.257863  0.641244  0.012500
N1692  N  0.257863  0.641244  0.087500
N1693  N  0.257863  0.641244  0.162500
N1694  N  0.257863  0.641244  0.237500
N1695  N  0.257863  0.641244  0.312500
N1696  N  0.257863  0.641244  0.387500
N1697  N  0.257863  0.641244  0.462500
N1698  N  0.257863  0.641244  0.537500
N1699  N  0.257863  0.641244  0.612500
N1700  N  0.257863  0.641244  0.687500
N1701  N  0.257863  0.641244  0.762500
N1702  N  0.257863  0.641244  0.837500
N1703  N  0.257863  0.641244  0.912500
N1704  N  0.257863  0.716684  0.012500
N1705  N  0.257863  0.716684  0.087500
N1706  N  0.257863  0.716684  0.162500
N1707  N  0.257863  0.716684  0.237500
N1708  N  0.257863  0.716684  0.312500
N1709  N  0.257863  0.716684  0.387500
N1710  N  0.257863  0.716684  0.462500
N1711  N  0.257863  0.716684  0.537500
N1712  N  0.257863  0.716684  0.612500
N1713  N  0.257863  0.716684  0.687500
N1714  N  0.257863  0.716684  0.762500
N1715  N  0.257863  0.716684  0.837500
N1716  N  0.257863  0.716684  0.912500
N1717  N  0.395390  0.264041  0.012500
N1718  N  0.395390  0.264041  0.087500
N1719  N  0.395390  0.264041  0.162500
N1720  N  0.395390  0.264041  0.237500
N1721  N  0.395390  0.264041  0.312500
N1722  N  0.395390  0.264041  0.387500
N1723  N  0.395390  0.264041  0.462500
N1724  N  0.395390  0.264041  0.537500
N1725  N  0.395390  0.264041  0.612500
N1726  N  0.395390  0.264041  0.687500
N1727  N  0.395390  0.264041  0.762500
N1728  N  0.395390  0.264041  0.837500
N1729  N  0.395390  0.264041  0.912500
N1730  N  0.395390  0.339482  0.012500
N1731  N  0.395390  0.339482  0.087500
N1732  N  0.395390  0.339482  0.162500
N1733  N  0.395390  0.339482  0.237500
N1734  N  0.395390  0.339482  0.312500
N1735  N  0.395390  0.339482  0.387500
N1736  N  0.395390  0.339482  0.462500
N1737  N  0.395390  0.339482  0.537500
N1738  N  0.395390  0.339482  0.612500
N1739  N  0.395390  0.339482  0.687500
N1740  N  0.395390  0.339482  0.762500
N1741  N  0.395390  0.339482  0.837500
N1742  N  0.395390  0.339482  0.912500
N1743  N  0.395390  0.414922  0.012500
N1744  N  0.395390  0.414922  0.087500
N1745  N  0.395390  0.414922  0.162500
N1746  N  0.395390  0.414922  0.237500
N1747  N  0.395390  0.414922  0.312500
N1748  N  0.395390  0.414922  0.387500
N1749  N  0.395390  0.414922  0.462500
N1750  N  0.395390  0.414922  0.537500
N1751  N  0.395390  0.414922  0.612500
N1752  N  0.395390  0.414922  0.687500
N1753  N  0.395390  0.414922  0.762500
N1754  N  0.395390  0.414922  0.837500
N1755  N  0.395390  0.414922  0.912500
N1756  N  0.395390  0.490363  0.012500
N1757  N  0.395390  0.490363  0.087500
N1758  N  0.395390  0.490363  0.162500
N1759  N  0.395390  0.490363  0.237500
N1760  N  0.395390  0.490363  0.312500
N1761  N  0.395390  0.490363  0.387500
N1762  N  0.395390  0.490363  0.462500
N1763  N  0.395390  0.490363  0.537500
N1764  N  0.395390  0.490363  0.612500
N1765  N  0.395390  0.490363  0.687500
N1766  N  0.395390  0.490363  0.762500
N1767  N  0.395390  0.490363  0.837500
N1768  N  0.395390  0.490363  0.912500
N1769  N  0.395390  0.565803  0.012500
N1770  N  0.395390  0.565803  0.087500
N1771  N  0.395390  0.565803  0.162500
N1772  N  0.395390  0.565803  0.237500
N1773  N  0.395390  0.565803  0.312500
N1774  N  0.395390  0.565803  0.387500
N1775  N  0.395390  0.565803  0.462500
N1776  N  0.395390  0.565803  0.537500
N1777  N  0.395390  0.565803  0.612500
N1778  N  0.395390  0.565803  0.687500
N1779  N  0.395390  0.565803  0.762500
N1780  N  0.395390  0.565803  0.837500
N1781  N  0.395390  0.565803  0.912500
N1782  N  0.395390  0.641244  0.012500
N1783  N  0.395390  0.641244  0.087500
N1784  N  0.395390  0.641244  0.162500
N1785  N  0.395390  0.641244  0.237500
N1786  N  0.395390  0.641244  0.312500
N1787  N  0.395390  0.641244  0.387500
N1788  N  0.395390  0.641244  0.462500
N1789  N  0.395390  0.641244  0.537500
N1790  N  0.395390  0.641244  0.612500
N1791  N  0.395390  0.641244  0.687500
N1792  N  0.395390  0.641244  0.762500
N1793  N  0.395390  0.641244  0.837500
N1794  N  0.395390  0.641244  0.912500
N1795  N  0.532917  0.339482  0.012500
N1796  N  0.532917  0.339482  0.087500
N1797  N  0.532917  0.339482  0.162500
N1798  N  0.532917  0.339482  0.237500
N1799  N  0.532917  0.339482  0.312500
N1800  N  0.532917  0.339482  0.387500
N1801  N  0.532917  0.339482  0.462500
N1802  N  0.532917  0.339482  0.537500
N1803  N  0.532917  0.339482  0.612500
N1804  N  0.532917  0.339482  0.687500
N1805  N  0.532917  0.339482  0.762500
N1806  N  0.532917  0.339482  0.837500
N1807  N  0.532917  0.339482  0.912500
N1808  N  0.532917  0.414922  0.012500
N1809  N  0.532917  0.414922  0.087500
N1810  N  0.532917  0.414922  0.162500
N1811  N  0.532917  0.414922  0.237500
N1812  N  0.532917  0.414922  0.312500
N1813  N  0.532917  0.414922  0.387500
N1814  N  0.532917  0.414922  0.462500
N1815  N  0.532917  0.414922  0.537500
N1816  N  0.532917  0.414922  0.612500
N1817  N  0.532917  0.414922  0.687500
N1818  N  0.532917  0.414922  0.762500
N1819  N  0.532917  0.414922  0.837500
N1820  N  0.532917  0.414922  0.912500
N1821  N  0.532917  0.490363  0.012500
N1822  N  0.532917  0.490363  0.087500
N1823  N  0.532917  0.490363  0.162500
N1824  N  0.532917  0.490363  0.237500
N1825  N  0.532917  0.490363  0.312500
N1826  N  0.532917  0.490363  0.387500
N1827  N  0.532917  0.490363  0.462500
N1828  N  0.532917  0.490363  0.537500
N1829  N  0.532917  0.490363  0.612500
N1830  N  0.532917  0.490363  0.687500
N1831  N  0.532917  0.490363  0.762500
N1832  N  0.532917  0.490363  0.837500
N1833  N  0.532917  0.490363  0.912500
N1834  N  0.532917  0.565803  0.012500
N1835  N  0.532917  0.565803  0.087500
N1836  N  0.532917  0.565803  0.162500
N1837  N  0.532917  0.565803  0.237500
N1838  N  0.532917  0.565803  0.312500
N1839  N  0.532917  0.565803  0.387500
N1840  N  0.532917  0.565803  0.462500
N1841  N  0.532917  0.565803  0.537500
N1842  N  0.532917  0.565803  0.612500
N1843  N  0.532917  0.565803  0.687500
N1844  N  0.532917  0.565803  0.762500
N1845  N  0.532917  0.565803  0.837500
N1846  N  0.532917  0.565803  0.912500
N1847  N  0.670443  0.414922  0.012500
N1848  N  0.670443  0.414922  0.087500
N1849  N  0.670443  0.414922  0.162500
N1850  N  0.670443  0.414922  0.237500
N1851  N  0.670443  0.414922  0.312500
N1852  N  0.670443  0.414922  0.387500
N1853  N  0.670443  0.414922  0.462500
N1854  N  0.670443  0.414922  0.537500
N1855  N  0.670443  0.414922  0.612500
N1856  N  0.670443  0.414922  0.687500
N1857  N  0.670443  0.414922  0.762500
N1858  N  0.670443  0.414922  0.837500
N1859  N  0.670443  0.414922  0.912500
N1860  N  0.670443  0.490363  0.012500
N1861  N  0.670443  0.490363  0.087500
N1862  N  0.670443  0.490363  0.162500
N1863  N  0.670443  0.490363  0.237500
N1864  N  0.670443  0.490363  0.312500
N1865  N  0.670443  0.490363  0.387500
N1866  N  0.670443  0.490363  0.462500
N1867  N  0.670443  0.490363  0.537500
N1868  N  0.670443  0.490363  0.612500
N1869  N  0.670443  0.490363  0.687500
N1870  N  0.670443  0.490363  0.762500
N1871  N  0.670443  0.490363  0.837500
N1872  N  0.670443  0.490363  0.912500
N1873  N  -0.017191  0.037720  0.012500
N1874  N  -0.017191 -0.000000  0.050000
N1875  N  -0.017191  0.867565  0.012500
N1876  N  -0.017191  0.905285  0.050000
N1877  N  -0.017191  0.037720  0.087500
N1878  N  -0.017191 -0.000000  0.125000
N1879  N  -0.017191  0.867565  0.087500
N1880  N  -0.017191  0.905285  0.125000
N1881  N  -0.017191  0.037720  0.162500
N1882  N  -0.017191 -0.000000  0.200000
N1883  N  -0.017191  0.867565  0.162500
N1884  N  -0.017191  0.905285  0.200000
N1885  N  -0.017191  0.037720  0.237500
N1886  N  -0.017191 -0.000000  0.275000
N1887  N  -0.017191  0.867565  0.237500
N1888  N  -0.017191  0.905285  0.275000
N1889  N  -0.017191  0.037720  0.312500
N1890  N  -0.017191 -0.000000  0.350000
N1891  N  -0.017191  0.867565  0.312500
N1892  N  -0.017191  0.905285  0.350000
N1893  N  -0.017191  0.037720  0.387500
N1894  N  -0.017191 -0.000000  0.425000
N1895  N  -0.017191  0.867565  0.387500
N1896  N  -0.017191  0.905285  0.425000
N1897  N  -0.017191  0.037720  0.462500
N1898  N  -0.017191 -0.000000  0.500000
N1899  N  -0.017191  0.867565  0.462500
N1900  N  -0.017191  0.905285  0.500000
N1901  N  -0.017191  0.037720  0.537500
N1902  N  -0.017191 -0.000000  0.575000
N1903  N  -0.017191  0.867565  0.537500
N1904  N  -0.017191  0.905285  0.575000
N1905  N  -0.017191  0.037720  0.612500
N1906  N  -0.017191 -0.000000  0.650000
N1907  N  -0.017191  0.867565  0.612500
N1908  N  -0.017191  0.905285  0.650000
N1909  N  -0.017191  0.037720  0.687500
N1910  N  -0.017191 -0.000000  0.725000
N1911  N  -0.017191  0.867565  0.687500
N1912  N  -0.017191  0.905285  0.725000
N1913  N  -0.017191  0.037720  0.762500
N1914  N  -0.017191 -0.000000  0.800000
N1915  N  -0.017191  0.867565  0.762500
N1916  N  -0.017191  0.905285  0.800000
N1917  N  -0.017191  0.037720  0.837500
N1918  N  -0.017191 -0.000000  0.875000
N1919  N  -0.017191  0.867565  0.837500
N1920  N  -0.017191  0.905285  0.875000
N1921  N  -0.017191  0.037720  0.912500
N1922  N  -0.017191 -0.000000  0.950000
N1923  N  -0.017191  0.867565  0.912500
N1924  N  -0.017191  0.905285  0.950000
N1925  N  -0.017191  0.075440  0.050000
N1926  N  -0.017191  0.113161  0.012500
N1927  N  -0.017191  0.075440  0.125000
N1928  N  -0.017191  0.113161  0.087500
N1929  N  -0.017191  0.075440  0.200000
N1930  N  -0.017191  0.113161  0.162500
N1931  N  -0.017191  0.075440  0.275000
N1932  N  -0.017191  0.113161  0.237500
N1933  N  -0.017191  0.075440  0.350000
N1934  N  -0.017191  0.113161  0.312500
N1935  N  -0.017191  0.075440  0.425000
N1936  N  -0.017191  0.113161  0.387500
N1937  N  -0.017191  0.075440  0.500000
N1938  N  -0.017191  0.113161  0.462500
N1939  N  -0.017191  0.075440  0.575000
N1940  N  -0.017191  0.113161  0.537500
N1941  N  -0.017191  0.075440  0.650000
N1942  N  -0.017191  0.113161  0.612500
N1943  N  -0.017191  0.075440  0.725000
N1944  N  -0.017191  0.113161  0.687500
N1945  N  -0.017191  0.075440  0.800000
N1946  N  -0.017191  0.113161  0.762500
N1947  N  -0.017191  0.075440  0.875000
N1948  N  -0.017191  0.113161  0.837500
N1949  N  -0.017191  0.075440  0.950000
N1950  N  -0.017191  0.113161  0.912500
N1951  N  -0.017191  0.150881  0.050000
N1952  N  -0.017191  0.188601  0.012500
N1953  N  -0.017191  0.150881  0.125000
N1954  N  -0.017191  0.188601  0.087500
N1955  N  -0.017191  0.150881  0.200000
N1956  N  -0.017191  0.188601  0.162500
N1957  N  -0.017191  0.150881  0.275000
N1958  N  -0.017191  0.188601  0.237500
N1959  N  -0.017191  0.150881  0.350000
N1960  N  -0.017191  0.188601  0.312500
N1961  N  -0.017191  0.150881  0.425000
N1962  N  -0.017191  0.188601  0.387500
N1963  N  -0.017191  0.150881  0.500000
N1964  N  -0.017191  0.188601  0.462500
N1965  N  -0.017191  0.150881  0.575000
N1966  N  -0.017191  0.188601  0.537500
N1967  N  -0.017191  0.150881  0.650000
N1968  N  -0.017191  0.188601  0.612500
N1969  N  -0.017191  0.150881  0.725000
N1970  N  -0.017191  0.188601  0.687500
N1971  N  -0.017191  0.150881  0.800000
N1972  N  -0.017191  0.188601  0.762500
N1973  N  -0.017191  0.150881  0.875000
N1974  N  -0.017191  0.188601  0.837500
N1975  N  -0.017191  0.150881  0.950000
N1976  N  -0.017191  0.188601  0.912500
N1977  N  -0.017191  0.264041  0.012500
N1978  N  -0.017191  0.226321  0.050000
N1979  N  -0.017191  0.264041  0.087500
N1980  N  -0.017191  0.226321  0.125000
N1981  N  -0.017191  0.264041  0.162500
N1982  N  -0.017191  0.226321  0.200000
N1983  N  -0.017191  0.264041  0.237500
N1984  N  -0.017191  0.226321  0.275000
N1985  N  -0.017191  0.264041  0.312500
N1986  N  -0.017191  0.226321  0.350000
N1987  N  -0.017191  0.264041  0.387500
N1988  N  -0.017191  0.226321  0.425000
N1989  N  -0.017191  0.264041  0.462500
N1990  N  -0.017191  0.226321  0.500000
N1991  N  -0.017191  0.264041  0.537500
N1992  N  -0.017191  0.226321  0.575000
N1993  N  -0.017191  0.264041  0.612500
N1994  N  -0.017191  0.226321  0.650000
N1995  N  -0.017191  0.264041  0.687500
N1996  N  -0.017191  0.226321  0.725000
N1997  N  -0.017191  0.264041  0.762500
N1998  N  -0.017191  0.226321  0.800000
N1999  N  -0.017191  0.264041  0.837500
N2000  N  -0.017191  0.226321  0.875000
N2001  N  -0.017191  0.264041  0.912500
N2002  N  -0.017191  0.226321  0.950000
N2003  N  -0.017191  0.301762  0.050000
N2004  N  -0.017191  0.339482  0.012500
N2005  N  -0.017191  0.301762  0.125000
N2006  N  -0.017191  0.339482  0.087500
N2007  N  -0.017191  0.301762  0.200000
N2008  N  -0.017191  0.339482  0.162500
N2009  N  -0.017191  0.301762  0.275000
N2010  N  -0.017191  0.339482  0.237500
N2011  N  -0.017191  0.301762  0.350000
N2012  N  -0.017191  0.339482  0.312500
N2013  N  -0.017191  0.301762  0.425000
N2014  N  -0.017191  0.339482  0.387500
N2015  N  -0.017191  0.301762  0.500000
N2016  N  -0.017191  0.339482  0.462500
N2017  N  -0.017191  0.301762  0.575000
N2018  N  -0.017191  0.339482  0.537500
N2019  N  -0.017191  0.301762  0.650000
N2020  N  -0.017191  0.339482  0.612500
N2021  N  -0.017191  0.301762  0.725000
N2022  N  -0.017191  0.339482  0.687500
N2023  N  -0.017191  0.301762  0.800000
N2024  N  -0.017191  0.339482  0.762500
N2025  N  -0.017191  0.301762  0.875000
N2026  N  -0.017191  0.339482  0.837500
N2027  N  -0.017191  0.301762  0.950000
N2028  N  -0.017191  0.339482  0.912500
N2029  N  -0.017191  0.414922  0.012500
N2030  N  -0.017191  0.377202  0.050000
N2031  N  -0.017191  0.414922  0.087500
N2032  N  -0.017191  0.377202  0.125000
N2033  N  -0.017191  0.414922  0.162500
N2034  N  -0.017191  0.377202  0.200000
N2035  N  -0.017191  0.414922  0.237500
N2036  N  -0.017191  0.377202  0.275000
N2037  N  -0.017191  0.414922  0.312500
N2038  N  -0.017191  0.377202  0.350000
N2039  N  -0.017191  0.414922  0.387500
N2040  N  -0.017191  0.377202  0.425000
N2041  N  -0.017191  0.414922  0.462500
N2042  N  -0.017191  0.377202  0.500000
N2043  N  -0.017191  0.414922  0.537500
N2044  N  -0.017191  0.377202  0.575000
N2045  N  -0.017191  0.414922  0.612500
N2046  N  -0.017191  0.377202  0.650000
N2047  N  -0.017191  0.414922  0.687500
N2048  N  -0.017191  0.377202  0.725000
N2049  N  -0.017191  0.414922  0.762500
N2050  N  -0.017191  0.377202  0.800000
N2051  N  -0.017191  0.414922  0.837500
N2052  N  -0.017191  0.377202  0.875000
N2053  N  -0.017191  0.414922  0.912500
N2054  N  -0.017191  0.377202  0.950000
N2055  N  -0.017191  0.452643  0.050000
N2056  N  -0.017191  0.490363  0.012500
N2057  N  0.876734  0.452643  0.025000
N2058  N  -0.017191  0.452643  0.125000
N2059  N  -0.017191  0.490363  0.087500
N2060  N  0.876734  0.452643  0.100000
N2061  N  -0.017191  0.452643  0.200000
N2062  N  -0.017191  0.490363  0.162500
N2063  N  0.876734  0.452643  0.175000
N2064  N  -0.017191  0.452643  0.275000
N2065  N  -0.017191  0.490363  0.237500
N2066  N  0.876734  0.452643  0.250000
N2067  N  -0.017191  0.452643  0.350000
N2068  N  -0.017191  0.490363  0.312500
N2069  N  0.876734  0.452643  0.325000
N2070  N  -0.017191  0.452643  0.425000
N2071  N  -0.017191  0.490363  0.387500
N2072  N  0.876734  0.452643  0.400000
N2073  N  -0.017191  0.452643  0.500000
N2074  N  -0.017191  0.490363  0.462500
N2075  N  0.876734  0.452643  0.475000
N2076  N  -0.017191  0.452643  0.575000
N2077  N  -0.017191  0.490363  0.537500
N2078  N  0.876734  0.452643  0.550000
N2079  N  -0.017191  0.452643  0.650000
N2080  N  -0.017191  0.490363  0.612500
N2081  N  0.876734  0.452643  0.625000
N2082  N  -0.017191  0.452643  0.725000
N2083  N  -0.017191  0.490363  0.687500
N2084  N  0.876734  0.452643  0.700000
N2085  N  -0.017191  0.452643  0.800000
N2086  N  -0.017191  0.490363  0.762500
N2087  N  0.876734  0.452643  0.775000
N2088  N  -0.017191  0.452643  0.875000
N2089  N  -0.017191  0.490363  0.837500
N2090  N  0.876734  0.452643  0.850000
N2091  N  -0.017191  0.452643  0.950000
N2092  N  -0.017191  0.490363  0.912500
N2093  N  0.876734  0.452643  0.925000
N2094  N  -0.017191  0.528083  0.050000
N2095  N  -0.017191  0.565803  0.012500
N2096  N  -0.017191  0.528083  0.125000
N2097  N  -0.017191  0.565803  0.087500
N2098  N  -0.017191  0.528083  0.200000
N2099  N  -0.017191  0.565803  0.162500
N2100  N  -0.017191  0.528083  0.275000
N2101  N  -0.017191  0.565803  0.237500
N2102  N  -0.017191  0.528083  0.350000
N2103  N  -0.017191  0.565803  0.312500
N2104  N  -0.017191  0.528083  0.425000
N2105  N  -0.017191  0.565803  0.387500
N2106  N  -0.017191  0.528083  0.500000
N2107  N  -0.017191  0.565803  0.462500
N2108  N  -0.017191  0.528083  0.575000
N2109  N  -0.017191  0.565803  0.537500
N2110  N  -0.017191  0.528083  0.650000
N2111  N  -0.017191  0.565803  0.612500
N2112  N  -0.017191  0.528083  0.725000
N2113  N  -0.017191  0.565803  0.687500
N2114  N  -0.017191  0.528083  0.800000
N2115  N  -0.017191  0.565803  0.762500
N2116  N  -0.017191  0.528083  0.875000
N2117  N  -0.017191  0.565803  0.837500
N2118  N  -0.017191  0.528083  0.950000
N2119  N  -0.017191  0.565803  0.912500
N2120  N  -0.017191  0.603523  0.050000
N2121  N  -0.017191  0.641244  0.012500
N2122  N  -0.017191  0.603523  0.125000
N2123  N  -0.017191  0.641244  0.087500
N2124  N  -0.017191  0.603523  0.200000
N2125  N  -0.017191  0.641244  0.162500
N2126  N  -0.017191  0.603523  0.275000
N2127  N  -0.017191  0.641244  0.237500
N2128  N  -0.017191  0.603523  0.350000
N2129  N  -0.017191  0.641244  0.312500
N2130  N  -0.017191  0.603523  0.425000
N2131  N  -0.017191  0.641244  0.387500
N2132  N  -0.017191  0.603523  0.500000
N2133  N  -0.017191  0.641244  0.462500
N2134  N  -0.017191  0.603523  0.575000
N2135  N  -0.017191  0.641244  0.537500
N2136  N  -0.017191  0.603523  0.650000
N2137  N  -0.017191  0.641244  0.612500
N2138  N  -0.017191  0.603523  0.725000
N2139  N  -0.017191  0.641244  0.687500
N2140  N  -0.017191  0.603523  0.800000
N2141  N  -0.017191  0.641244  0.762500
N2142  N  -0.017191  0.603523  0.875000
N2143  N  -0.017191  0.641244  0.837500
N2144  N  -0.017191  0.603523  0.950000
N2145  N  -0.017191  0.641244  0.912500
N2146  N  -0.017191  0.678964  0.050000
N2147  N  -0.017191  0.716684  0.012500
N2148  N  -0.017191  0.678964  0.125000
N2149  N  -0.017191  0.716684  0.087500
N2150  N  -0.017191  0.678964  0.200000
N2151  N  -0.017191  0.716684  0.162500
N2152  N  -0.017191  0.678964  0.275000
N2153  N  -0.017191  0.716684  0.237500
N2154  N  -0.017191  0.678964  0.350000
N2155  N  -0.017191  0.716684  0.312500
N2156  N  -0.017191  0.678964  0.425000
N2157  N  -0.017191  0.716684  0.387500
N2158  N  -0.017191  0.678964  0.500000
N2159  N  -0.017191  0.716684  0.462500
N2160  N  -0.017191  0.678964  0.575000
N2161  N  -0.017191  0.716684  0.537500
N2162  N  -0.017191  0.678964  0.650000
N2163  N  -0.017191  0.716684  0.612500
N2164  N  -0.017191  0.678964  0.725000
N2165  N  -0.017191  0.716684  0.687500
N2166  N  -0.017191  0.678964  0.800000
N2167  N  -0.017191  0.716684  0.762500
N2168  N  -0.017191  0.678964  0.875000
N2169  N  -0.017191  0.716684  0.837500
N2170  N  -0.017191  0.678964  0.950000
N2171  N  -0.017191  0.716684  0.912500
N2172  N  -0.017191  0.792124  0.012500
N2173  N  -0.017191  0.754404  0.050000
N2174  N  -0.017191  0.792124  0.087500
N2175  N  -0.017191  0.754404  0.125000
N2176  N  -0.017191  0.792124  0.162500
N2177  N  -0.017191  0.754404  0.200000
N2178  N  -0.017191  0.792124  0.237500
N2179  N  -0.017191  0.754404  0.275000
N2180  N  -0.017191  0.792124  0.312500
N2181  N  -0.017191  0.754404  0.350000
N2182  N  -0.017191  0.792124  0.387500
N2183  N  -0.017191  0.754404  0.425000
N2184  N  -0.017191  0.792124  0.462500
N2185  N  -0.017191  0.754404  0.500000
N2186  N  -0.017191  0.792124  0.537500
N2187  N  -0.017191  0.754404  0.575000
N2188  N  -0.017191  0.792124  0.612500
N2189  N  -0.017191  0.754404  0.650000
N2190  N  -0.017191  0.792124  0.687500
N2191  N  -0.017191  0.754404  0.725000
N2192  N  -0.017191  0.792124  0.762500
N2193  N  -0.017191  0.754404  0.800000
N2194  N  -0.017191  0.792124  0.837500
N2195  N  -0.017191  0.754404  0.875000
N2196  N  -0.017191  0.792124  0.912500
N2197  N  -0.017191  0.754404  0.950000
N2198  N  -0.017191  0.829845  0.050000
N2199  N  -0.017191  0.829845  0.125000
N2200  N  -0.017191  0.829845  0.200000
N2201  N  -0.017191  0.829845  0.275000
N2202  N  -0.017191  0.829845  0.350000
N2203  N  -0.017191  0.829845  0.425000
N2204  N  -0.017191  0.829845  0.500000
N2205  N  -0.017191  0.829845  0.575000
N2206  N  -0.017191  0.829845  0.650000
N2207  N  -0.017191  0.829845  0.725000
N2208  N  -0.017191  0.829845  0.800000
N2209  N  -0.017191  0.829845  0.875000
N2210  N  -0.017191  0.829845  0.950000
N2211  N  -0.017191  0.037720  0.987500
N2212  N  -0.017191  0.113161  0.987500
N2213  N  -0.017191  0.188601  0.987500
N2214  N  -0.017191  0.264041  0.987500
N2215  N  -0.017191  0.339482  0.987500
N2216  N  -0.017191  0.414922  0.987500
N2217  N  -0.017191  0.490363  0.987500
N2218  N  -0.017191  0.565803  0.987500
N2219  N  -0.017191  0.641244  0.987500
N2220  N  -0.017191  0.716684  0.987500
N2221  N  -0.017191  0.792124  0.987500
N2222  N  -0.017191  0.867565  0.987500
N2223  N  0.120336  0.113161  0.987500
N2224  N  0.120336  0.188601  0.987500
N2225  N  0.120336  0.264041  0.987500
N2226  N  0.120336  0.339482  0.987500
N2227  N  0.120336  0.414922  0.987500
N2228  N  0.120336  0.490363  0.987500
N2229  N  0.120336  0.565803  0.987500
N2230  N  0.120336  0.641244  0.987500
N2231  N  0.120336  0.716684  0.987500
N2232  N  0.120336  0.792124  0.987500
N2233  N  0.257863  0.188601  0.987500
N2234  N  0.257863  0.264041  0.987500
N2235  N  0.257863  0.339482  0.987500
N2236  N  0.257863  0.414922  0.987500
N2237  N  0.257863  0.490363  0.987500
N2238  N  0.257863  0.565803  0.987500
N2239  N  0.257863  0.641244  0.987500
N2240  N  0.257863  0.716684  0.987500
N2241  N  0.395390  0.264041  0.987500
N2242  N  0.395390  0.339482  0.987500
N2243  N  0.395390  0.414922  0.987500
N2244  N  0.395390  0.490363  0.987500
N2245  N  0.395390  0.565803  0.987500
N2246  N  0.395390  0.641244  0.987500
N2247  N  0.532917  0.339482  0.987500
N2248  N  0.532917  0.414922  0.987500
N2249  N  0.532917  0.490363  0.987500
N2250  N  0.532917  0.565803  0.987500
N2251  N  0.670443  0.414922  0.987500
N2252  N  0.670443  0.490363  0.987500
N2253  N  0.051573  0.037720 -0.012500
N2254  N  0.051573  0.113161 -0.012500
N2255  N  0.051573  0.188601 -0.012500
N2256  N  0.051573  0.264041 -0.012500
N2257  N  0.051573  0.339482 -0.012500
N2258  N  0.051573  0.414922 -0.012500
N2259  N  0.051573  0.490363 -0.012500
N2260  N  0.051573  0.565803 -0.012500
N2261  N  0.051573  0.641244 -0.012500
N2262  N  0.051573  0.716684 -0.012500
N2263  N  0.051573  0.792124 -0.012500
N2264  N  0.051573  0.867565 -0.012500
N2265  N  0.189099  0.113161 -0.012500
N2266  N  0.189099  0.188601 -0.012500
N2267  N  0.189099  0.264041 -0.012500
N2268  N  0.189099  0.339482 -0.012500
N2269  N  0.189099  0.414922 -0.012500
N2270  N  0.189099  0.490363 -0.012500
N2271  N  0.189099  0.565803 -0.012500
N2272  N  0.189099  0.641244 -0.012500
N2273  N  0.189099  0.716684 -0.012500
N2274  N  0.189099  0.792124 -0.012500
N2275  N  0.326626  0.188601 -0.012500
N2276  N  0.326626  0.264041 -0.012500
N2277  N  0.326626  0.339482 -0.012500
N2278  N  0.326626  0.414922 -0.012500
N2279  N  0.326626  0.490363 -0.012500
N2280  N  0.326626  0.565803 -0.012500
N2281  N  0.326626  0.641244 -0.012500
N2282  N  0.326626  0.716684 -0.012500
N2283  N  0.464153  0.264041 -0.012500
N2284  N  0.464153  0.339482 -0.012500
N2285  N  0.464153  0.414922 -0.012500
N2286  N  0.464153  0.490363 -0.012500
N2287  N  0.464153  0.565803 -0.012500
N2288  N  0.464153  0.641244 -0.012500
N2289  N  0.601680  0.339482 -0.012500
N2290  N  0.601680  0.414922 -0.012500
N2291  N  0.601680  0.490363 -0.012500
N2292  N  0.601680  0.565803 -0.012500
N2293  N  0.739207  0.414922 -0.012500
N2294  N  0.739207  0.490363 -0.012500
