_audit_creation_date      'Dec. 30, 2024'
_audit_creation_method    'Draft CIF file generated with Atomsk'
 
_chemical_name_common             ?
_chemical_melting_point           ?
_chemical_formula_iupac           'Ga1152 N1152'
_chemical_formula_moiety          'Ga1152 N1152'
_chemical_formula_sum             'Ga1152 N1152'
_chemical_formula_weight          96456.960
_chemical_compound_source         ?
_chemical_absolute_configuration  ?
_exptl_crystal_description        'EDIT-ENTRY'
_diffrn_measurement_device_type   'EDIT-ENTRY'
 
_space_group_IT_number            1
_space_group_crystal_system       orthorhombic
_symmetry_space_group_name_Hall   'P 1'
_symmetry_space_group_name_H-M    'P 1'
 
loop_
_space_group_symop_operation_xyz
'+x,+y,+z'
 
_cell_length_a                    24.5955
_cell_length_b                    22.2831
_cell_length_c                    62.8795
_cell_angle_alpha                 90.0000
_cell_angle_beta                  90.0000
_cell_angle_gamma                 90.0000
_cell_volume                      34461.9963
 
loop_
 _atom_site_label
 _atom_site_type_symbol
 _atom_site_fract_x
 _atom_site_fract_y
 _atom_site_fract_z
Ga1  Ga  0.238466  0.083333  0.083260
Ga2  Ga  0.303848  0.041667  0.041593
N1  N  0.238466  0.083333  0.031323
N2  N  0.303848  0.041667  0.072990
Ga3  Ga  0.238466  0.083333  0.250260
Ga4  Ga  0.303848  0.041667  0.208593
N3  N  0.238466  0.083333  0.198323
N4  N  0.303848  0.041667  0.239990
Ga5  Ga  0.238466  0.083333  0.333260
Ga6  Ga  0.303848  0.041667  0.291593
N5  N  0.238466  0.083333  0.281323
N6  N  0.303848  0.041667  0.322990
Ga7  Ga  0.238466  0.083333  0.500260
Ga8  Ga  0.303848  0.041667  0.458593
N7  N  0.238466  0.083333  0.448323
N8  N  0.303848  0.041667  0.489990
Ga9  Ga  0.238466  0.083333  0.416260
Ga10  Ga  0.303848  0.041667  0.374593
N9  N  0.238466  0.083333  0.364323
N10  N  0.303848  0.041667  0.405990
Ga11  Ga  0.238466  0.083333  0.583260
Ga12  Ga  0.303848  0.041667  0.541593
N11  N  0.238466  0.083333  0.531323
N12  N  0.303848  0.041667  0.572990
Ga13  Ga  0.238466  0.083333  0.666260
Ga14  Ga  0.303848  0.041667  0.624593
N13  N  0.238466  0.083333  0.614323
N14  N  0.303848  0.041667  0.655990
Ga15  Ga  0.238466  0.083333  0.833260
Ga16  Ga  0.303848  0.041667  0.791593
N15  N  0.238466  0.083333  0.781323
N16  N  0.303848  0.041667  0.822990
Ga17  Ga  0.238466  0.083333  0.750260
Ga18  Ga  0.303848  0.041667  0.708593
N17  N  0.238466  0.083333  0.698323
N18  N  0.303848  0.041667  0.739990
Ga19  Ga  0.238466  0.083333  0.000260
Ga20  Ga  0.303848  0.041667  0.958593
N19  N  0.238466  0.083333  0.948323
N20  N  0.303848  0.041667  0.989990
Ga21  Ga  0.238466  0.083333  0.916260
Ga22  Ga  0.303848  0.041667  0.874593
N21  N  0.238466  0.083333  0.864323
N22  N  0.303848  0.041667  0.905990
Ga23  Ga  0.238466  0.083333  0.166260
Ga24  Ga  0.303848  0.041667  0.124593
N23  N  0.238466  0.083333  0.114323
N24  N  0.303848  0.041667  0.155990
Ga25  Ga  0.173082  0.208333  0.083260
Ga26  Ga  0.238464  0.166667  0.041593
N25  N  0.173082  0.208333  0.031323
N26  N  0.238464  0.166667  0.072990
Ga27  Ga  0.173082  0.208333  0.250260
Ga28  Ga  0.238464  0.166667  0.208593
N27  N  0.173082  0.208333  0.198323
N28  N  0.238464  0.166667  0.239990
Ga29  Ga  0.173082  0.208333  0.333260
Ga30  Ga  0.238464  0.166667  0.291593
N29  N  0.173082  0.208333  0.281323
N30  N  0.238464  0.166667  0.322990
Ga31  Ga  0.173082  0.208333  0.500260
Ga32  Ga  0.238464  0.166667  0.458593
N31  N  0.173082  0.208333  0.448323
N32  N  0.238464  0.166667  0.489990
Ga33  Ga  0.173082  0.208333  0.416260
Ga34  Ga  0.238464  0.166667  0.374593
N33  N  0.173082  0.208333  0.364323
N34  N  0.238464  0.166667  0.405990
Ga35  Ga  0.173082  0.208333  0.583260
Ga36  Ga  0.238464  0.166667  0.541593
N35  N  0.173082  0.208333  0.531323
N36  N  0.238464  0.166667  0.572990
Ga37  Ga  0.173082  0.208333  0.666260
Ga38  Ga  0.238464  0.166667  0.624593
N37  N  0.173082  0.208333  0.614323
N38  N  0.238464  0.166667  0.655990
Ga39  Ga  0.173082  0.208333  0.833260
Ga40  Ga  0.238464  0.166667  0.791593
N39  N  0.173082  0.208333  0.781323
N40  N  0.238464  0.166667  0.822990
Ga41  Ga  0.173082  0.208333  0.750260
Ga42  Ga  0.238464  0.166667  0.708593
N41  N  0.173082  0.208333  0.698323
N42  N  0.238464  0.166667  0.739990
Ga43  Ga  0.173082  0.208333  0.000260
Ga44  Ga  0.238464  0.166667  0.958593
N43  N  0.173082  0.208333  0.948323
N44  N  0.238464  0.166667  0.989990
Ga45  Ga  0.173082  0.208333  0.916260
Ga46  Ga  0.238464  0.166667  0.874593
N45  N  0.173082  0.208333  0.864323
N46  N  0.238464  0.166667  0.905990
Ga47  Ga  0.173082  0.208333  0.166260
Ga48  Ga  0.238464  0.166667  0.124593
N47  N  0.173082  0.208333  0.114323
N48  N  0.238464  0.166667  0.155990
Ga49  Ga  0.107698  0.333333  0.083460
Ga50  Ga  0.173081  0.291667  0.041793
N49  N  0.107698  0.333333  0.031523
N50  N  0.173081  0.291667  0.073190
Ga51  Ga  0.107698  0.333333  0.250460
Ga52  Ga  0.173081  0.291667  0.208793
N51  N  0.107698  0.333333  0.198523
N52  N  0.173081  0.291667  0.240190
Ga53  Ga  0.107698  0.333333  0.333460
Ga54  Ga  0.173081  0.291667  0.291793
N53  N  0.107698  0.333333  0.281523
N54  N  0.173081  0.291667  0.323190
Ga55  Ga  0.107698  0.333333  0.500460
Ga56  Ga  0.173081  0.291667  0.458793
N55  N  0.107698  0.333333  0.448523
N56  N  0.173081  0.291667  0.490190
Ga57  Ga  0.107698  0.333333  0.416460
Ga58  Ga  0.173081  0.291667  0.374793
N57  N  0.107698  0.333333  0.364523
N58  N  0.173081  0.291667  0.406190
Ga59  Ga  0.107698  0.333333  0.583460
Ga60  Ga  0.173081  0.291667  0.541793
N59  N  0.107698  0.333333  0.531523
N60  N  0.173081  0.291667  0.573190
Ga61  Ga  0.107698  0.333333  0.666460
Ga62  Ga  0.173081  0.291667  0.624793
N61  N  0.107698  0.333333  0.614523
N62  N  0.173081  0.291667  0.656190
Ga63  Ga  0.107698  0.333333  0.833460
Ga64  Ga  0.173081  0.291667  0.791793
N63  N  0.107698  0.333333  0.781523
N64  N  0.173081  0.291667  0.823190
Ga65  Ga  0.107698  0.333333  0.750460
Ga66  Ga  0.173081  0.291667  0.708793
N65  N  0.107698  0.333333  0.698523
N66  N  0.173081  0.291667  0.740190
Ga67  Ga  0.107698  0.333333  0.000460
Ga68  Ga  0.173081  0.291667  0.958793
N67  N  0.107698  0.333333  0.948523
N68  N  0.173081  0.291667  0.990190
Ga69  Ga  0.107698  0.333333  0.916460
Ga70  Ga  0.173081  0.291667  0.874793
N69  N  0.107698  0.333333  0.864523
N70  N  0.173081  0.291667  0.906190
Ga71  Ga  0.107698  0.333333  0.166460
Ga72  Ga  0.173081  0.291667  0.124793
N71  N  0.107698  0.333333  0.114523
N72  N  0.173081  0.291667  0.156190
Ga73  Ga  0.042314  0.458333  0.250460
Ga74  Ga  0.107697  0.416667  0.208793
N73  N  0.042314  0.458333  0.198523
N74  N  0.107697  0.416667  0.240190
Ga75  Ga  0.042314  0.458333  0.417460
Ga76  Ga  0.107697  0.416667  0.375793
N75  N  0.042314  0.458333  0.365523
N76  N  0.107697  0.416667  0.407190
Ga77  Ga  0.042314  0.458333  0.500460
Ga78  Ga  0.107697  0.416667  0.458793
N77  N  0.042314  0.458333  0.448523
N78  N  0.107697  0.416667  0.490190
Ga79  Ga  0.042314  0.458333  0.667460
Ga80  Ga  0.107697  0.416667  0.625793
N79  N  0.042314  0.458333  0.615523
N80  N  0.107697  0.416667  0.657190
Ga81  Ga  0.042314  0.458333  0.583460
Ga82  Ga  0.107697  0.416667  0.541793
N81  N  0.042314  0.458333  0.531523
N82  N  0.107697  0.416667  0.573190
Ga83  Ga  0.042314  0.458333  0.750460
Ga84  Ga  0.107697  0.416667  0.708793
N83  N  0.042314  0.458333  0.698523
N84  N  0.107697  0.416667  0.740190
Ga85  Ga  0.042314  0.458333  0.833460
Ga86  Ga  0.107697  0.416667  0.791793
N85  N  0.042314  0.458333  0.781523
N86  N  0.107697  0.416667  0.823190
Ga87  Ga  0.042314  0.458333  0.000460
Ga88  Ga  0.107697  0.416667  0.958793
N87  N  0.042314  0.458333  0.948523
N88  N  0.107697  0.416667  0.990190
Ga89  Ga  0.042314  0.458333  0.917460
Ga90  Ga  0.107697  0.416667  0.875793
N89  N  0.042314  0.458333  0.865523
N90  N  0.107697  0.416667  0.907190
Ga91  Ga  0.042314  0.458333  0.167460
Ga92  Ga  0.107697  0.416667  0.125793
N91  N  0.042314  0.458333  0.115523
N92  N  0.107697  0.416667  0.157190
Ga93  Ga  0.042314  0.458333  0.083460
Ga94  Ga  0.107697  0.416667  0.041793
N93  N  0.042314  0.458333  0.031523
N94  N  0.107697  0.416667  0.073190
Ga95  Ga  0.042314  0.458333  0.333460
Ga96  Ga  0.107697  0.416667  0.291793
N95  N  0.042314  0.458333  0.281523
N96  N  0.107697  0.416667  0.323190
Ga97  Ga  0.042313  0.541667  0.458793
N97  N  0.042313  0.541667  0.490190
Ga98  Ga  0.042313  0.541667  0.625793
N98  N  0.042313  0.541667  0.657190
Ga99  Ga  0.042313  0.541667  0.708793
N99  N  0.042313  0.541667  0.740190
Ga100  Ga  0.042313  0.541667  0.875793
N100  N  0.042313  0.541667  0.907190
Ga101  Ga  0.042313  0.541667  0.791793
N101  N  0.042313  0.541667  0.823190
Ga102  Ga  0.042313  0.541667  0.958793
N102  N  0.042313  0.541667  0.990190
Ga103  Ga  0.042313  0.541667  0.041793
N103  N  0.042313  0.541667  0.073190
Ga104  Ga  0.042313  0.541667  0.208793
N104  N  0.042313  0.541667  0.240190
Ga105  Ga  0.042313  0.541667  0.125793
N105  N  0.042313  0.541667  0.157190
Ga106  Ga  0.042313  0.541667  0.375793
N106  N  0.042313  0.541667  0.407190
Ga107  Ga  0.042313  0.541667  0.291793
N107  N  0.042313  0.541667  0.323190
Ga108  Ga  0.042313  0.541667  0.541793
N108  N  0.042313  0.541667  0.573190
Ga109  Ga  0.369233  0.083333  0.083260
Ga110  Ga  0.434616  0.041667  0.041593
N109  N  0.369233  0.083333  0.031323
N110  N  0.434616  0.041667  0.072990
Ga111  Ga  0.369233  0.083333  0.250260
Ga112  Ga  0.434616  0.041667  0.208593
N111  N  0.369233  0.083333  0.198323
N112  N  0.434616  0.041667  0.239990
Ga113  Ga  0.369233  0.083333  0.333260
Ga114  Ga  0.434616  0.041667  0.291593
N113  N  0.369233  0.083333  0.281323
N114  N  0.434616  0.041667  0.322990
Ga115  Ga  0.369233  0.083333  0.500260
Ga116  Ga  0.434616  0.041667  0.458593
N115  N  0.369233  0.083333  0.448323
N116  N  0.434616  0.041667  0.489990
Ga117  Ga  0.369233  0.083333  0.416260
Ga118  Ga  0.434616  0.041667  0.374593
N117  N  0.369233  0.083333  0.364323
N118  N  0.434616  0.041667  0.405990
Ga119  Ga  0.369233  0.083333  0.583260
Ga120  Ga  0.434616  0.041667  0.541593
N119  N  0.369233  0.083333  0.531323
N120  N  0.434616  0.041667  0.572990
Ga121  Ga  0.369233  0.083333  0.666260
Ga122  Ga  0.434616  0.041667  0.624593
N121  N  0.369233  0.083333  0.614323
N122  N  0.434616  0.041667  0.655990
Ga123  Ga  0.369233  0.083333  0.833260
Ga124  Ga  0.434616  0.041667  0.791593
N123  N  0.369233  0.083333  0.781323
N124  N  0.434616  0.041667  0.822990
Ga125  Ga  0.369233  0.083333  0.750260
Ga126  Ga  0.434616  0.041667  0.708593
N125  N  0.369233  0.083333  0.698323
N126  N  0.434616  0.041667  0.739990
Ga127  Ga  0.369233  0.083333  0.000260
Ga128  Ga  0.434616  0.041667  0.958593
N127  N  0.369233  0.083333  0.948323
N128  N  0.434616  0.041667  0.989990
Ga129  Ga  0.369233  0.083333  0.916260
Ga130  Ga  0.434616  0.041667  0.874593
N129  N  0.369233  0.083333  0.864323
N130  N  0.434616  0.041667  0.905990
Ga131  Ga  0.369233  0.083333  0.166260
Ga132  Ga  0.434616  0.041667  0.124593
N131  N  0.369233  0.083333  0.114323
N132  N  0.434616  0.041667  0.155990
Ga133  Ga  0.303849  0.208333  0.083260
Ga134  Ga  0.369232  0.166667  0.041593
N133  N  0.303849  0.208333  0.031323
N134  N  0.369232  0.166667  0.072990
Ga135  Ga  0.303849  0.208333  0.250260
Ga136  Ga  0.369232  0.166667  0.208593
N135  N  0.303849  0.208333  0.198323
N136  N  0.369232  0.166667  0.239990
Ga137  Ga  0.303849  0.208333  0.333260
Ga138  Ga  0.369232  0.166667  0.291593
N137  N  0.303849  0.208333  0.281323
N138  N  0.369232  0.166667  0.322990
Ga139  Ga  0.303849  0.208333  0.500260
Ga140  Ga  0.369232  0.166667  0.458593
N139  N  0.303849  0.208333  0.448323
N140  N  0.369232  0.166667  0.489990
Ga141  Ga  0.303849  0.208333  0.416260
Ga142  Ga  0.369232  0.166667  0.374593
N141  N  0.303849  0.208333  0.364323
N142  N  0.369232  0.166667  0.405990
Ga143  Ga  0.303849  0.208333  0.583260
Ga144  Ga  0.369232  0.166667  0.541593
N143  N  0.303849  0.208333  0.531323
N144  N  0.369232  0.166667  0.572990
Ga145  Ga  0.303849  0.208333  0.666260
Ga146  Ga  0.369232  0.166667  0.624593
N145  N  0.303849  0.208333  0.614323
N146  N  0.369232  0.166667  0.655990
Ga147  Ga  0.303849  0.208333  0.833260
Ga148  Ga  0.369232  0.166667  0.791593
N147  N  0.303849  0.208333  0.781323
N148  N  0.369232  0.166667  0.822990
Ga149  Ga  0.303849  0.208333  0.750260
Ga150  Ga  0.369232  0.166667  0.708593
N149  N  0.303849  0.208333  0.698323
N150  N  0.369232  0.166667  0.739990
Ga151  Ga  0.303849  0.208333  0.000260
Ga152  Ga  0.369232  0.166667  0.958593
N151  N  0.303849  0.208333  0.948323
N152  N  0.369232  0.166667  0.989990
Ga153  Ga  0.303849  0.208333  0.916260
Ga154  Ga  0.369232  0.166667  0.874593
N153  N  0.303849  0.208333  0.864323
N154  N  0.369232  0.166667  0.905990
Ga155  Ga  0.303849  0.208333  0.166260
Ga156  Ga  0.369232  0.166667  0.124593
N155  N  0.303849  0.208333  0.114323
N156  N  0.369232  0.166667  0.155990
Ga157  Ga  0.238466  0.333333  0.083460
Ga158  Ga  0.303848  0.291667  0.041793
N157  N  0.238466  0.333333  0.031523
N158  N  0.303848  0.291667  0.073190
Ga159  Ga  0.238466  0.333333  0.250460
Ga160  Ga  0.303848  0.291667  0.208793
N159  N  0.238466  0.333333  0.198523
N160  N  0.303848  0.291667  0.240190
Ga161  Ga  0.238466  0.333333  0.333460
Ga162  Ga  0.303848  0.291667  0.291793
N161  N  0.238466  0.333333  0.281523
N162  N  0.303848  0.291667  0.323190
Ga163  Ga  0.238466  0.333333  0.500460
Ga164  Ga  0.303848  0.291667  0.458793
N163  N  0.238466  0.333333  0.448523
N164  N  0.303848  0.291667  0.490190
Ga165  Ga  0.238466  0.333333  0.416460
Ga166  Ga  0.303848  0.291667  0.374793
N165  N  0.238466  0.333333  0.364523
N166  N  0.303848  0.291667  0.406190
Ga167  Ga  0.238466  0.333333  0.583460
Ga168  Ga  0.303848  0.291667  0.541793
N167  N  0.238466  0.333333  0.531523
N168  N  0.303848  0.291667  0.573190
Ga169  Ga  0.238466  0.333333  0.666460
Ga170  Ga  0.303848  0.291667  0.624793
N169  N  0.238466  0.333333  0.614523
N170  N  0.303848  0.291667  0.656190
Ga171  Ga  0.238466  0.333333  0.833460
Ga172  Ga  0.303848  0.291667  0.791793
N171  N  0.238466  0.333333  0.781523
N172  N  0.303848  0.291667  0.823190
Ga173  Ga  0.238466  0.333333  0.750460
Ga174  Ga  0.303848  0.291667  0.708793
N173  N  0.238466  0.333333  0.698523
N174  N  0.303848  0.291667  0.740190
Ga175  Ga  0.238466  0.333333  0.000460
Ga176  Ga  0.303848  0.291667  0.958793
N175  N  0.238466  0.333333  0.948523
N176  N  0.303848  0.291667  0.990190
Ga177  Ga  0.238466  0.333333  0.916460
Ga178  Ga  0.303848  0.291667  0.874793
N177  N  0.238466  0.333333  0.864523
N178  N  0.303848  0.291667  0.906190
Ga179  Ga  0.238466  0.333333  0.166460
Ga180  Ga  0.303848  0.291667  0.124793
N179  N  0.238466  0.333333  0.114523
N180  N  0.303848  0.291667  0.156190
Ga181  Ga  0.173082  0.458333  0.250460
Ga182  Ga  0.238464  0.416667  0.208793
N181  N  0.173082  0.458333  0.198523
N182  N  0.238464  0.416667  0.240190
Ga183  Ga  0.173082  0.458333  0.417460
Ga184  Ga  0.238464  0.416667  0.375793
N183  N  0.173082  0.458333  0.365523
N184  N  0.238464  0.416667  0.407190
Ga185  Ga  0.173082  0.458333  0.500460
Ga186  Ga  0.238464  0.416667  0.458793
N185  N  0.173082  0.458333  0.448523
N186  N  0.238464  0.416667  0.490190
Ga187  Ga  0.173082  0.458333  0.667460
Ga188  Ga  0.238464  0.416667  0.625793
N187  N  0.173082  0.458333  0.615523
N188  N  0.238464  0.416667  0.657190
Ga189  Ga  0.173082  0.458333  0.583460
Ga190  Ga  0.238464  0.416667  0.541793
N189  N  0.173082  0.458333  0.531523
N190  N  0.238464  0.416667  0.573190
Ga191  Ga  0.173082  0.458333  0.750460
Ga192  Ga  0.238464  0.416667  0.708793
N191  N  0.173082  0.458333  0.698523
N192  N  0.238464  0.416667  0.740190
Ga193  Ga  0.173082  0.458333  0.833460
Ga194  Ga  0.238464  0.416667  0.791793
N193  N  0.173082  0.458333  0.781523
N194  N  0.238464  0.416667  0.823190
Ga195  Ga  0.173082  0.458333  0.000460
Ga196  Ga  0.238464  0.416667  0.958793
N195  N  0.173082  0.458333  0.948523
N196  N  0.238464  0.416667  0.990190
Ga197  Ga  0.173082  0.458333  0.917460
Ga198  Ga  0.238464  0.416667  0.875793
N197  N  0.173082  0.458333  0.865523
N198  N  0.238464  0.416667  0.907190
Ga199  Ga  0.173082  0.458333  0.167460
Ga200  Ga  0.238464  0.416667  0.125793
N199  N  0.173082  0.458333  0.115523
N200  N  0.238464  0.416667  0.157190
Ga201  Ga  0.173082  0.458333  0.083460
Ga202  Ga  0.238464  0.416667  0.041793
N201  N  0.173082  0.458333  0.031523
N202  N  0.238464  0.416667  0.073190
Ga203  Ga  0.173082  0.458333  0.333460
Ga204  Ga  0.238464  0.416667  0.291793
N203  N  0.173082  0.458333  0.281523
N204  N  0.238464  0.416667  0.323190
Ga205  Ga  0.107698  0.583333  0.500460
Ga206  Ga  0.173081  0.541667  0.458793
N205  N  0.107698  0.583333  0.448523
N206  N  0.173081  0.541667  0.490190
Ga207  Ga  0.107698  0.583333  0.667460
Ga208  Ga  0.173081  0.541667  0.625793
N207  N  0.107698  0.583333  0.615523
N208  N  0.173081  0.541667  0.657190
Ga209  Ga  0.107698  0.583333  0.750460
Ga210  Ga  0.173081  0.541667  0.708793
N209  N  0.107698  0.583333  0.698523
N210  N  0.173081  0.541667  0.740190
Ga211  Ga  0.107698  0.583333  0.917460
Ga212  Ga  0.173081  0.541667  0.875793
N211  N  0.107698  0.583333  0.865523
N212  N  0.173081  0.541667  0.907190
Ga213  Ga  0.107698  0.583333  0.833460
Ga214  Ga  0.173081  0.541667  0.791793
N213  N  0.107698  0.583333  0.781523
N214  N  0.173081  0.541667  0.823190
Ga215  Ga  0.107698  0.583333  0.000460
Ga216  Ga  0.173081  0.541667  0.958793
N215  N  0.107698  0.583333  0.948523
N216  N  0.173081  0.541667  0.990190
Ga217  Ga  0.107698  0.583333  0.083460
Ga218  Ga  0.173081  0.541667  0.041793
N217  N  0.107698  0.583333  0.031523
N218  N  0.173081  0.541667  0.073190
Ga219  Ga  0.107698  0.583333  0.250460
Ga220  Ga  0.173081  0.541667  0.208793
N219  N  0.107698  0.583333  0.198523
N220  N  0.173081  0.541667  0.240190
Ga221  Ga  0.107698  0.583333  0.167460
Ga222  Ga  0.173081  0.541667  0.125793
N221  N  0.107698  0.583333  0.115523
N222  N  0.173081  0.541667  0.157190
Ga223  Ga  0.107698  0.583333  0.417460
Ga224  Ga  0.173081  0.541667  0.375793
N223  N  0.107698  0.583333  0.365523
N224  N  0.173081  0.541667  0.407190
Ga225  Ga  0.107698  0.583333  0.333460
Ga226  Ga  0.173081  0.541667  0.291793
N225  N  0.107698  0.583333  0.281523
N226  N  0.173081  0.541667  0.323190
Ga227  Ga  0.107698  0.583333  0.583460
Ga228  Ga  0.173081  0.541667  0.541793
N227  N  0.107698  0.583333  0.531523
N228  N  0.173081  0.541667  0.573190
Ga229  Ga  0.107697  0.666667  0.791793
N229  N  0.107697  0.666667  0.823190
Ga230  Ga  0.107697  0.666667  0.958793
N230  N  0.107697  0.666667  0.990190
Ga231  Ga  0.107697  0.666667  0.041793
N231  N  0.107697  0.666667  0.073190
Ga232  Ga  0.107697  0.666667  0.208793
N232  N  0.107697  0.666667  0.240190
Ga233  Ga  0.107697  0.666667  0.124793
N233  N  0.107697  0.666667  0.156190
Ga234  Ga  0.107697  0.666667  0.291793
N234  N  0.107697  0.666667  0.323190
Ga235  Ga  0.107697  0.666667  0.374793
N235  N  0.107697  0.666667  0.406190
Ga236  Ga  0.107697  0.666667  0.541793
N236  N  0.107697  0.666667  0.573190
Ga237  Ga  0.107697  0.666667  0.458793
N237  N  0.107697  0.666667  0.490190
Ga238  Ga  0.107697  0.666667  0.708793
N238  N  0.107697  0.666667  0.740190
Ga239  Ga  0.107697  0.666667  0.624793
N239  N  0.107697  0.666667  0.656190
Ga240  Ga  0.107697  0.666667  0.874793
N240  N  0.107697  0.666667  0.906190
Ga241  Ga  0.500001  0.083333  0.083460
Ga242  Ga  0.565383  0.041667  0.041793
N241  N  0.500001  0.083333  0.031523
N242  N  0.565383  0.041667  0.073190
Ga243  Ga  0.500001  0.083333  0.250460
Ga244  Ga  0.565383  0.041667  0.208793
N243  N  0.500001  0.083333  0.198523
N244  N  0.565383  0.041667  0.240190
Ga245  Ga  0.500001  0.083333  0.333460
Ga246  Ga  0.565383  0.041667  0.291793
N245  N  0.500001  0.083333  0.281523
N246  N  0.565383  0.041667  0.323190
Ga247  Ga  0.500001  0.083333  0.500460
Ga248  Ga  0.565383  0.041667  0.458793
N247  N  0.500001  0.083333  0.448523
N248  N  0.565383  0.041667  0.490190
Ga249  Ga  0.500001  0.083333  0.416460
Ga250  Ga  0.565383  0.041667  0.374793
N249  N  0.500001  0.083333  0.364523
N250  N  0.565383  0.041667  0.406190
Ga251  Ga  0.500001  0.083333  0.583460
Ga252  Ga  0.565383  0.041667  0.541793
N251  N  0.500001  0.083333  0.531523
N252  N  0.565383  0.041667  0.573190
Ga253  Ga  0.500001  0.083333  0.666460
Ga254  Ga  0.565383  0.041667  0.624793
N253  N  0.500001  0.083333  0.614523
N254  N  0.565383  0.041667  0.656190
Ga255  Ga  0.500001  0.083333  0.833460
Ga256  Ga  0.565383  0.041667  0.791793
N255  N  0.500001  0.083333  0.781523
N256  N  0.565383  0.041667  0.823190
Ga257  Ga  0.500001  0.083333  0.750460
Ga258  Ga  0.565383  0.041667  0.708793
N257  N  0.500001  0.083333  0.698523
N258  N  0.565383  0.041667  0.740190
Ga259  Ga  0.500001  0.083333  0.000460
Ga260  Ga  0.565383  0.041667  0.958793
N259  N  0.500001  0.083333  0.948523
N260  N  0.565383  0.041667  0.990190
Ga261  Ga  0.500001  0.083333  0.916460
Ga262  Ga  0.565383  0.041667  0.874793
N261  N  0.500001  0.083333  0.864523
N262  N  0.565383  0.041667  0.906190
Ga263  Ga  0.500001  0.083333  0.166460
Ga264  Ga  0.565383  0.041667  0.124793
N263  N  0.500001  0.083333  0.114523
N264  N  0.565383  0.041667  0.156190
Ga265  Ga  0.434617  0.208333  0.083460
Ga266  Ga  0.500000  0.166667  0.041793
N265  N  0.434617  0.208333  0.031523
N266  N  0.500000  0.166667  0.073190
Ga267  Ga  0.434617  0.208333  0.250460
Ga268  Ga  0.500000  0.166667  0.208793
N267  N  0.434617  0.208333  0.198523
N268  N  0.500000  0.166667  0.240190
Ga269  Ga  0.434617  0.208333  0.333460
Ga270  Ga  0.500000  0.166667  0.291793
N269  N  0.434617  0.208333  0.281523
N270  N  0.500000  0.166667  0.323190
Ga271  Ga  0.434617  0.208333  0.500460
Ga272  Ga  0.500000  0.166667  0.458793
N271  N  0.434617  0.208333  0.448523
N272  N  0.500000  0.166667  0.490190
Ga273  Ga  0.434617  0.208333  0.416460
Ga274  Ga  0.500000  0.166667  0.374793
N273  N  0.434617  0.208333  0.364523
N274  N  0.500000  0.166667  0.406190
Ga275  Ga  0.434617  0.208333  0.583460
Ga276  Ga  0.500000  0.166667  0.541793
N275  N  0.434617  0.208333  0.531523
N276  N  0.500000  0.166667  0.573190
Ga277  Ga  0.434617  0.208333  0.666460
Ga278  Ga  0.500000  0.166667  0.624793
N277  N  0.434617  0.208333  0.614523
N278  N  0.500000  0.166667  0.656190
Ga279  Ga  0.434617  0.208333  0.833460
Ga280  Ga  0.500000  0.166667  0.791793
N279  N  0.434617  0.208333  0.781523
N280  N  0.500000  0.166667  0.823190
Ga281  Ga  0.434617  0.208333  0.750460
Ga282  Ga  0.500000  0.166667  0.708793
N281  N  0.434617  0.208333  0.698523
N282  N  0.500000  0.166667  0.740190
Ga283  Ga  0.434617  0.208333  0.000460
Ga284  Ga  0.500000  0.166667  0.958793
N283  N  0.434617  0.208333  0.948523
N284  N  0.500000  0.166667  0.990190
Ga285  Ga  0.434617  0.208333  0.916460
Ga286  Ga  0.500000  0.166667  0.874793
N285  N  0.434617  0.208333  0.864523
N286  N  0.500000  0.166667  0.906190
Ga287  Ga  0.434617  0.208333  0.166460
Ga288  Ga  0.500000  0.166667  0.124793
N287  N  0.434617  0.208333  0.114523
N288  N  0.500000  0.166667  0.156190
Ga289  Ga  0.369233  0.333333  0.083660
Ga290  Ga  0.434616  0.291667  0.041993
N289  N  0.369233  0.333333  0.031723
N290  N  0.434616  0.291667  0.073390
Ga291  Ga  0.369233  0.333333  0.250660
Ga292  Ga  0.434616  0.291667  0.208993
N291  N  0.369233  0.333333  0.198723
N292  N  0.434616  0.291667  0.240390
Ga293  Ga  0.369233  0.333333  0.333660
Ga294  Ga  0.434616  0.291667  0.291993
N293  N  0.369233  0.333333  0.281723
N294  N  0.434616  0.291667  0.323390
Ga295  Ga  0.369233  0.333333  0.500660
Ga296  Ga  0.434616  0.291667  0.458993
N295  N  0.369233  0.333333  0.448723
N296  N  0.434616  0.291667  0.490390
Ga297  Ga  0.369233  0.333333  0.416660
Ga298  Ga  0.434616  0.291667  0.374993
N297  N  0.369233  0.333333  0.364723
N298  N  0.434616  0.291667  0.406390
Ga299  Ga  0.369233  0.333333  0.583660
Ga300  Ga  0.434616  0.291667  0.541993
N299  N  0.369233  0.333333  0.531723
N300  N  0.434616  0.291667  0.573390
Ga301  Ga  0.369233  0.333333  0.666660
Ga302  Ga  0.434616  0.291667  0.624993
N301  N  0.369233  0.333333  0.614723
N302  N  0.434616  0.291667  0.656390
Ga303  Ga  0.369233  0.333333  0.833660
Ga304  Ga  0.434616  0.291667  0.791993
N303  N  0.369233  0.333333  0.781723
N304  N  0.434616  0.291667  0.823390
Ga305  Ga  0.369233  0.333333  0.750660
Ga306  Ga  0.434616  0.291667  0.708993
N305  N  0.369233  0.333333  0.698723
N306  N  0.434616  0.291667  0.740390
Ga307  Ga  0.369233  0.333333  0.000660
Ga308  Ga  0.434616  0.291667  0.958993
N307  N  0.369233  0.333333  0.948723
N308  N  0.434616  0.291667  0.990390
Ga309  Ga  0.369233  0.333333  0.916660
Ga310  Ga  0.434616  0.291667  0.874993
N309  N  0.369233  0.333333  0.864723
N310  N  0.434616  0.291667  0.906390
Ga311  Ga  0.369233  0.333333  0.166660
Ga312  Ga  0.434616  0.291667  0.124993
N311  N  0.369233  0.333333  0.114723
N312  N  0.434616  0.291667  0.156390
Ga313  Ga  0.303849  0.458333  0.250660
Ga314  Ga  0.369232  0.416667  0.208993
N313  N  0.303849  0.458333  0.198723
N314  N  0.369232  0.416667  0.240390
Ga315  Ga  0.303849  0.458333  0.417660
Ga316  Ga  0.369232  0.416667  0.375993
N315  N  0.303849  0.458333  0.365723
N316  N  0.369232  0.416667  0.407390
Ga317  Ga  0.303849  0.458333  0.500660
Ga318  Ga  0.369232  0.416667  0.458993
N317  N  0.303849  0.458333  0.448723
N318  N  0.369232  0.416667  0.490390
Ga319  Ga  0.303849  0.458333  0.667660
Ga320  Ga  0.369232  0.416667  0.625993
N319  N  0.303849  0.458333  0.615723
N320  N  0.369232  0.416667  0.657390
Ga321  Ga  0.303849  0.458333  0.583660
Ga322  Ga  0.369232  0.416667  0.541993
N321  N  0.303849  0.458333  0.531723
N322  N  0.369232  0.416667  0.573390
Ga323  Ga  0.303849  0.458333  0.750660
Ga324  Ga  0.369232  0.416667  0.708993
N323  N  0.303849  0.458333  0.698723
N324  N  0.369232  0.416667  0.740390
Ga325  Ga  0.303849  0.458333  0.833660
Ga326  Ga  0.369232  0.416667  0.791993
N325  N  0.303849  0.458333  0.781723
N326  N  0.369232  0.416667  0.823390
Ga327  Ga  0.303849  0.458333  0.000660
Ga328  Ga  0.369232  0.416667  0.958993
N327  N  0.303849  0.458333  0.948723
N328  N  0.369232  0.416667  0.990390
Ga329  Ga  0.303849  0.458333  0.917660
Ga330  Ga  0.369232  0.416667  0.875993
N329  N  0.303849  0.458333  0.865723
N330  N  0.369232  0.416667  0.907390
Ga331  Ga  0.303849  0.458333  0.167660
Ga332  Ga  0.369232  0.416667  0.125993
N331  N  0.303849  0.458333  0.115723
N332  N  0.369232  0.416667  0.157390
Ga333  Ga  0.303849  0.458333  0.083660
Ga334  Ga  0.369232  0.416667  0.041993
N333  N  0.303849  0.458333  0.031723
N334  N  0.369232  0.416667  0.073390
Ga335  Ga  0.303849  0.458333  0.333660
Ga336  Ga  0.369232  0.416667  0.291993
N335  N  0.303849  0.458333  0.281723
N336  N  0.369232  0.416667  0.323390
Ga337  Ga  0.238465  0.583333  0.500660
Ga338  Ga  0.303848  0.541667  0.458993
N337  N  0.238465  0.583333  0.448723
N338  N  0.303848  0.541667  0.490390
Ga339  Ga  0.238465  0.583333  0.667660
Ga340  Ga  0.303848  0.541667  0.625993
N339  N  0.238465  0.583333  0.615723
N340  N  0.303848  0.541667  0.657390
Ga341  Ga  0.238465  0.583333  0.750660
Ga342  Ga  0.303848  0.541667  0.708993
N341  N  0.238465  0.583333  0.698723
N342  N  0.303848  0.541667  0.740390
Ga343  Ga  0.238465  0.583333  0.917660
Ga344  Ga  0.303848  0.541667  0.875993
N343  N  0.238465  0.583333  0.865723
N344  N  0.303848  0.541667  0.907390
Ga345  Ga  0.238465  0.583333  0.833660
Ga346  Ga  0.303848  0.541667  0.791993
N345  N  0.238465  0.583333  0.781723
N346  N  0.303848  0.541667  0.823390
Ga347  Ga  0.238465  0.583333  0.000660
Ga348  Ga  0.303848  0.541667  0.958993
N347  N  0.238465  0.583333  0.948723
N348  N  0.303848  0.541667  0.990390
Ga349  Ga  0.238465  0.583333  0.083660
Ga350  Ga  0.303848  0.541667  0.041993
N349  N  0.238465  0.583333  0.031723
N350  N  0.303848  0.541667  0.073390
Ga351  Ga  0.238465  0.583333  0.250660
Ga352  Ga  0.303848  0.541667  0.208993
N351  N  0.238465  0.583333  0.198723
N352  N  0.303848  0.541667  0.240390
Ga353  Ga  0.238465  0.583333  0.167660
Ga354  Ga  0.303848  0.541667  0.125993
N353  N  0.238465  0.583333  0.115723
N354  N  0.303848  0.541667  0.157390
Ga355  Ga  0.238465  0.583333  0.417660
Ga356  Ga  0.303848  0.541667  0.375993
N355  N  0.238465  0.583333  0.365723
N356  N  0.303848  0.541667  0.407390
Ga357  Ga  0.238465  0.583333  0.333660
Ga358  Ga  0.303848  0.541667  0.291993
N357  N  0.238465  0.583333  0.281723
N358  N  0.303848  0.541667  0.323390
Ga359  Ga  0.238465  0.583333  0.583660
Ga360  Ga  0.303848  0.541667  0.541993
N359  N  0.238465  0.583333  0.531723
N360  N  0.303848  0.541667  0.573390
Ga361  Ga  0.173082  0.708333  0.833660
Ga362  Ga  0.238464  0.666667  0.791993
N361  N  0.173082  0.708333  0.781723
N362  N  0.238464  0.666667  0.823390
Ga363  Ga  0.173082  0.708333  0.000660
Ga364  Ga  0.238464  0.666667  0.958993
N363  N  0.173082  0.708333  0.948723
N364  N  0.238464  0.666667  0.990390
Ga365  Ga  0.173082  0.708333  0.083660
Ga366  Ga  0.238464  0.666667  0.041993
N365  N  0.173082  0.708333  0.031723
N366  N  0.238464  0.666667  0.073390
Ga367  Ga  0.173082  0.708333  0.250660
Ga368  Ga  0.238464  0.666667  0.208993
N367  N  0.173082  0.708333  0.198723
N368  N  0.238464  0.666667  0.240390
Ga369  Ga  0.173082  0.708333  0.166660
Ga370  Ga  0.238464  0.666667  0.124993
N369  N  0.173082  0.708333  0.114723
N370  N  0.238464  0.666667  0.156390
Ga371  Ga  0.173082  0.708333  0.333660
Ga372  Ga  0.238464  0.666667  0.291993
N371  N  0.173082  0.708333  0.281723
N372  N  0.238464  0.666667  0.323390
Ga373  Ga  0.173082  0.708333  0.416660
Ga374  Ga  0.238464  0.666667  0.374993
N373  N  0.173082  0.708333  0.364723
N374  N  0.238464  0.666667  0.406390
Ga375  Ga  0.173082  0.708333  0.583660
Ga376  Ga  0.238464  0.666667  0.541993
N375  N  0.173082  0.708333  0.531723
N376  N  0.238464  0.666667  0.573390
Ga377  Ga  0.173082  0.708333  0.500660
Ga378  Ga  0.238464  0.666667  0.458993
N377  N  0.173082  0.708333  0.448723
N378  N  0.238464  0.666667  0.490390
Ga379  Ga  0.173082  0.708333  0.750660
Ga380  Ga  0.238464  0.666667  0.708993
N379  N  0.173082  0.708333  0.698723
N380  N  0.238464  0.666667  0.740390
Ga381  Ga  0.173082  0.708333  0.666660
Ga382  Ga  0.238464  0.666667  0.624993
N381  N  0.173082  0.708333  0.614723
N382  N  0.238464  0.666667  0.656390
Ga383  Ga  0.173082  0.708333  0.916660
Ga384  Ga  0.238464  0.666667  0.874993
N383  N  0.173082  0.708333  0.864723
N384  N  0.238464  0.666667  0.906390
Ga385  Ga  0.173081  0.791667  0.792193
N385  N  0.173081  0.791667  0.823590
Ga386  Ga  0.173081  0.791667  0.959193
N386  N  0.173081  0.791667  0.990590
Ga387  Ga  0.173081  0.791667  0.042193
N387  N  0.173081  0.791667  0.073590
Ga388  Ga  0.173081  0.791667  0.209193
N388  N  0.173081  0.791667  0.240590
Ga389  Ga  0.173081  0.791667  0.125193
N389  N  0.173081  0.791667  0.156590
Ga390  Ga  0.173081  0.791667  0.292193
N390  N  0.173081  0.791667  0.323590
Ga391  Ga  0.173081  0.791667  0.375193
N391  N  0.173081  0.791667  0.406590
Ga392  Ga  0.173081  0.791667  0.542193
N392  N  0.173081  0.791667  0.573590
Ga393  Ga  0.173081  0.791667  0.459193
N393  N  0.173081  0.791667  0.490590
Ga394  Ga  0.173081  0.791667  0.709193
N394  N  0.173081  0.791667  0.740590
Ga395  Ga  0.173081  0.791667  0.625193
N395  N  0.173081  0.791667  0.656590
Ga396  Ga  0.173081  0.791667  0.875193
N396  N  0.173081  0.791667  0.906590
Ga397  Ga  0.630768  0.083333  0.250460
Ga398  Ga  0.696151  0.041667  0.208793
N397  N  0.630768  0.083333  0.198523
N398  N  0.696151  0.041667  0.240190
Ga399  Ga  0.630768  0.083333  0.417460
Ga400  Ga  0.696151  0.041667  0.375793
N399  N  0.630768  0.083333  0.365523
N400  N  0.696151  0.041667  0.407190
Ga401  Ga  0.630768  0.083333  0.500460
Ga402  Ga  0.696151  0.041667  0.458793
N401  N  0.630768  0.083333  0.448523
N402  N  0.696151  0.041667  0.490190
Ga403  Ga  0.630768  0.083333  0.667460
Ga404  Ga  0.696151  0.041667  0.625793
N403  N  0.630768  0.083333  0.615523
N404  N  0.696151  0.041667  0.657190
Ga405  Ga  0.630768  0.083333  0.583460
Ga406  Ga  0.696151  0.041667  0.541793
N405  N  0.630768  0.083333  0.531523
N406  N  0.696151  0.041667  0.573190
Ga407  Ga  0.630768  0.083333  0.750460
Ga408  Ga  0.696151  0.041667  0.708793
N407  N  0.630768  0.083333  0.698523
N408  N  0.696151  0.041667  0.740190
Ga409  Ga  0.630768  0.083333  0.833460
Ga410  Ga  0.696151  0.041667  0.791793
N409  N  0.630768  0.083333  0.781523
N410  N  0.696151  0.041667  0.823190
Ga411  Ga  0.630768  0.083333  0.000460
Ga412  Ga  0.696151  0.041667  0.958793
N411  N  0.630768  0.083333  0.948523
N412  N  0.696151  0.041667  0.990190
Ga413  Ga  0.630768  0.083333  0.917460
Ga414  Ga  0.696151  0.041667  0.875793
N413  N  0.630768  0.083333  0.865523
N414  N  0.696151  0.041667  0.907190
Ga415  Ga  0.630768  0.083333  0.167460
Ga416  Ga  0.696151  0.041667  0.125793
N415  N  0.630768  0.083333  0.115523
N416  N  0.696151  0.041667  0.157190
Ga417  Ga  0.630768  0.083333  0.083460
Ga418  Ga  0.696151  0.041667  0.041793
N417  N  0.630768  0.083333  0.031523
N418  N  0.696151  0.041667  0.073190
Ga419  Ga  0.630768  0.083333  0.333460
Ga420  Ga  0.696151  0.041667  0.291793
N419  N  0.630768  0.083333  0.281523
N420  N  0.696151  0.041667  0.323190
Ga421  Ga  0.565384  0.208333  0.250460
Ga422  Ga  0.630767  0.166667  0.208793
N421  N  0.565384  0.208333  0.198523
N422  N  0.630767  0.166667  0.240190
Ga423  Ga  0.565384  0.208333  0.417460
Ga424  Ga  0.630767  0.166667  0.375793
N423  N  0.565384  0.208333  0.365523
N424  N  0.630767  0.166667  0.407190
Ga425  Ga  0.565384  0.208333  0.500460
Ga426  Ga  0.630767  0.166667  0.458793
N425  N  0.565384  0.208333  0.448523
N426  N  0.630767  0.166667  0.490190
Ga427  Ga  0.565384  0.208333  0.667460
Ga428  Ga  0.630767  0.166667  0.625793
N427  N  0.565384  0.208333  0.615523
N428  N  0.630767  0.166667  0.657190
Ga429  Ga  0.565384  0.208333  0.583460
Ga430  Ga  0.630767  0.166667  0.541793
N429  N  0.565384  0.208333  0.531523
N430  N  0.630767  0.166667  0.573190
Ga431  Ga  0.565384  0.208333  0.750460
Ga432  Ga  0.630767  0.166667  0.708793
N431  N  0.565384  0.208333  0.698523
N432  N  0.630767  0.166667  0.740190
Ga433  Ga  0.565384  0.208333  0.833460
Ga434  Ga  0.630767  0.166667  0.791793
N433  N  0.565384  0.208333  0.781523
N434  N  0.630767  0.166667  0.823190
Ga435  Ga  0.565384  0.208333  0.000460
Ga436  Ga  0.630767  0.166667  0.958793
N435  N  0.565384  0.208333  0.948523
N436  N  0.630767  0.166667  0.990190
Ga437  Ga  0.565384  0.208333  0.917460
Ga438  Ga  0.630767  0.166667  0.875793
N437  N  0.565384  0.208333  0.865523
N438  N  0.630767  0.166667  0.907190
Ga439  Ga  0.565384  0.208333  0.167460
Ga440  Ga  0.630767  0.166667  0.125793
N439  N  0.565384  0.208333  0.115523
N440  N  0.630767  0.166667  0.157190
Ga441  Ga  0.565384  0.208333  0.083460
Ga442  Ga  0.630767  0.166667  0.041793
N441  N  0.565384  0.208333  0.031523
N442  N  0.630767  0.166667  0.073190
Ga443  Ga  0.565384  0.208333  0.333460
Ga444  Ga  0.630767  0.166667  0.291793
N443  N  0.565384  0.208333  0.281523
N444  N  0.630767  0.166667  0.323190
Ga445  Ga  0.500001  0.333333  0.250660
Ga446  Ga  0.565383  0.291667  0.208993
N445  N  0.500001  0.333333  0.198723
N446  N  0.565383  0.291667  0.240390
Ga447  Ga  0.500001  0.333333  0.417660
Ga448  Ga  0.565383  0.291667  0.375993
N447  N  0.500001  0.333333  0.365723
N448  N  0.565383  0.291667  0.407390
Ga449  Ga  0.500001  0.333333  0.500660
Ga450  Ga  0.565383  0.291667  0.458993
N449  N  0.500001  0.333333  0.448723
N450  N  0.565383  0.291667  0.490390
Ga451  Ga  0.500001  0.333333  0.667660
Ga452  Ga  0.565383  0.291667  0.625993
N451  N  0.500001  0.333333  0.615723
N452  N  0.565383  0.291667  0.657390
Ga453  Ga  0.500001  0.333333  0.583660
Ga454  Ga  0.565383  0.291667  0.541993
N453  N  0.500001  0.333333  0.531723
N454  N  0.565383  0.291667  0.573390
Ga455  Ga  0.500001  0.333333  0.750660
Ga456  Ga  0.565383  0.291667  0.708993
N455  N  0.500001  0.333333  0.698723
N456  N  0.565383  0.291667  0.740390
Ga457  Ga  0.500001  0.333333  0.833660
Ga458  Ga  0.565383  0.291667  0.791993
N457  N  0.500001  0.333333  0.781723
N458  N  0.565383  0.291667  0.823390
Ga459  Ga  0.500001  0.333333  0.000660
Ga460  Ga  0.565383  0.291667  0.958993
N459  N  0.500001  0.333333  0.948723
N460  N  0.565383  0.291667  0.990390
Ga461  Ga  0.500001  0.333333  0.917660
Ga462  Ga  0.565383  0.291667  0.875993
N461  N  0.500001  0.333333  0.865723
N462  N  0.565383  0.291667  0.907390
Ga463  Ga  0.500001  0.333333  0.167660
Ga464  Ga  0.565383  0.291667  0.125993
N463  N  0.500001  0.333333  0.115723
N464  N  0.565383  0.291667  0.157390
Ga465  Ga  0.500001  0.333333  0.083660
Ga466  Ga  0.565383  0.291667  0.041993
N465  N  0.500001  0.333333  0.031723
N466  N  0.565383  0.291667  0.073390
Ga467  Ga  0.500001  0.333333  0.333660
Ga468  Ga  0.565383  0.291667  0.291993
N467  N  0.500001  0.333333  0.281723
N468  N  0.565383  0.291667  0.323390
Ga469  Ga  0.434617  0.458333  0.417660
Ga470  Ga  0.499999  0.416667  0.375993
N469  N  0.434617  0.458333  0.365723
N470  N  0.499999  0.416667  0.407390
Ga471  Ga  0.434617  0.458333  0.584660
Ga472  Ga  0.499999  0.416667  0.542993
N471  N  0.434617  0.458333  0.532723
N472  N  0.499999  0.416667  0.574390
Ga473  Ga  0.434617  0.458333  0.667660
Ga474  Ga  0.499999  0.416667  0.625993
N473  N  0.434617  0.458333  0.615723
N474  N  0.499999  0.416667  0.657390
Ga475  Ga  0.434617  0.458333  0.834660
Ga476  Ga  0.499999  0.416667  0.792993
N475  N  0.434617  0.458333  0.782723
N476  N  0.499999  0.416667  0.824390
Ga477  Ga  0.434617  0.458333  0.750660
Ga478  Ga  0.499999  0.416667  0.708993
N477  N  0.434617  0.458333  0.698723
N478  N  0.499999  0.416667  0.740390
Ga479  Ga  0.434617  0.458333  0.917660
Ga480  Ga  0.499999  0.416667  0.875993
N479  N  0.434617  0.458333  0.865723
N480  N  0.499999  0.416667  0.907390
Ga481  Ga  0.434617  0.458333  0.000660
Ga482  Ga  0.499999  0.416667  0.958993
N481  N  0.434617  0.458333  0.948723
N482  N  0.499999  0.416667  0.990390
Ga483  Ga  0.434617  0.458333  0.167660
Ga484  Ga  0.499999  0.416667  0.125993
N483  N  0.434617  0.458333  0.115723
N484  N  0.499999  0.416667  0.157390
Ga485  Ga  0.434617  0.458333  0.084660
Ga486  Ga  0.499999  0.416667  0.042993
N485  N  0.434617  0.458333  0.032723
N486  N  0.499999  0.416667  0.074390
Ga487  Ga  0.434617  0.458333  0.334660
Ga488  Ga  0.499999  0.416667  0.292993
N487  N  0.434617  0.458333  0.282723
N488  N  0.499999  0.416667  0.324390
Ga489  Ga  0.434617  0.458333  0.250660
Ga490  Ga  0.499999  0.416667  0.208993
N489  N  0.434617  0.458333  0.198723
N490  N  0.499999  0.416667  0.240390
Ga491  Ga  0.434617  0.458333  0.500660
Ga492  Ga  0.499999  0.416667  0.458993
N491  N  0.434617  0.458333  0.448723
N492  N  0.499999  0.416667  0.490390
Ga493  Ga  0.369233  0.583333  0.667660
Ga494  Ga  0.434616  0.541667  0.625993
N493  N  0.369233  0.583333  0.615723
N494  N  0.434616  0.541667  0.657390
Ga495  Ga  0.369233  0.583333  0.834660
Ga496  Ga  0.434616  0.541667  0.792993
N495  N  0.369233  0.583333  0.782723
N496  N  0.434616  0.541667  0.824390
Ga497  Ga  0.369233  0.583333  0.917660
Ga498  Ga  0.434616  0.541667  0.875993
N497  N  0.369233  0.583333  0.865723
N498  N  0.434616  0.541667  0.907390
Ga499  Ga  0.369233  0.583333  0.084660
Ga500  Ga  0.434616  0.541667  0.042993
N499  N  0.369233  0.583333  0.032723
N500  N  0.434616  0.541667  0.074390
Ga501  Ga  0.369233  0.583333  0.000660
Ga502  Ga  0.434616  0.541667  0.958993
N501  N  0.369233  0.583333  0.948723
N502  N  0.434616  0.541667  0.990390
Ga503  Ga  0.369233  0.583333  0.167660
Ga504  Ga  0.434616  0.541667  0.125993
N503  N  0.369233  0.583333  0.115723
N504  N  0.434616  0.541667  0.157390
Ga505  Ga  0.369233  0.583333  0.250660
Ga506  Ga  0.434616  0.541667  0.208993
N505  N  0.369233  0.583333  0.198723
N506  N  0.434616  0.541667  0.240390
Ga507  Ga  0.369233  0.583333  0.417660
Ga508  Ga  0.434616  0.541667  0.375993
N507  N  0.369233  0.583333  0.365723
N508  N  0.434616  0.541667  0.407390
Ga509  Ga  0.369233  0.583333  0.334660
Ga510  Ga  0.434616  0.541667  0.292993
N509  N  0.369233  0.583333  0.282723
N510  N  0.434616  0.541667  0.324390
Ga511  Ga  0.369233  0.583333  0.584660
Ga512  Ga  0.434616  0.541667  0.542993
N511  N  0.369233  0.583333  0.532723
N512  N  0.434616  0.541667  0.574390
Ga513  Ga  0.369233  0.583333  0.500660
Ga514  Ga  0.434616  0.541667  0.458993
N513  N  0.369233  0.583333  0.448723
N514  N  0.434616  0.541667  0.490390
Ga515  Ga  0.369233  0.583333  0.750660
Ga516  Ga  0.434616  0.541667  0.708993
N515  N  0.369233  0.583333  0.698723
N516  N  0.434616  0.541667  0.740390
Ga517  Ga  0.303849  0.708333  0.000660
Ga518  Ga  0.369232  0.666667  0.958993
N517  N  0.303849  0.708333  0.948723
N518  N  0.369232  0.666667  0.990390
Ga519  Ga  0.303849  0.708333  0.167660
Ga520  Ga  0.369232  0.666667  0.125993
N519  N  0.303849  0.708333  0.115723
N520  N  0.369232  0.666667  0.157390
Ga521  Ga  0.303849  0.708333  0.250660
Ga522  Ga  0.369232  0.666667  0.208993
N521  N  0.303849  0.708333  0.198723
N522  N  0.369232  0.666667  0.240390
Ga523  Ga  0.303849  0.708333  0.417660
Ga524  Ga  0.369232  0.666667  0.375993
N523  N  0.303849  0.708333  0.365723
N524  N  0.369232  0.666667  0.407390
Ga525  Ga  0.303849  0.708333  0.333660
Ga526  Ga  0.369232  0.666667  0.291993
N525  N  0.303849  0.708333  0.281723
N526  N  0.369232  0.666667  0.323390
Ga527  Ga  0.303849  0.708333  0.500660
Ga528  Ga  0.369232  0.666667  0.458993
N527  N  0.303849  0.708333  0.448723
N528  N  0.369232  0.666667  0.490390
Ga529  Ga  0.303849  0.708333  0.583660
Ga530  Ga  0.369232  0.666667  0.541993
N529  N  0.303849  0.708333  0.531723
N530  N  0.369232  0.666667  0.573390
Ga531  Ga  0.303849  0.708333  0.750660
Ga532  Ga  0.369232  0.666667  0.708993
N531  N  0.303849  0.708333  0.698723
N532  N  0.369232  0.666667  0.740390
Ga533  Ga  0.303849  0.708333  0.667660
Ga534  Ga  0.369232  0.666667  0.625993
N533  N  0.303849  0.708333  0.615723
N534  N  0.369232  0.666667  0.657390
Ga535  Ga  0.303849  0.708333  0.917660
Ga536  Ga  0.369232  0.666667  0.875993
N535  N  0.303849  0.708333  0.865723
N536  N  0.369232  0.666667  0.907390
Ga537  Ga  0.303849  0.708333  0.833660
Ga538  Ga  0.369232  0.666667  0.791993
N537  N  0.303849  0.708333  0.781723
N538  N  0.369232  0.666667  0.823390
Ga539  Ga  0.303849  0.708333  0.083660
Ga540  Ga  0.369232  0.666667  0.041993
N539  N  0.303849  0.708333  0.031723
N540  N  0.369232  0.666667  0.073390
Ga541  Ga  0.238465  0.833333  0.000860
Ga542  Ga  0.303848  0.791667  0.959193
N541  N  0.238465  0.833333  0.948923
N542  N  0.303848  0.791667  0.990590
Ga543  Ga  0.238465  0.833333  0.167860
Ga544  Ga  0.303848  0.791667  0.126193
N543  N  0.238465  0.833333  0.115923
N544  N  0.303848  0.791667  0.157590
Ga545  Ga  0.238465  0.833333  0.250860
Ga546  Ga  0.303848  0.791667  0.209193
N545  N  0.238465  0.833333  0.198923
N546  N  0.303848  0.791667  0.240590
Ga547  Ga  0.238465  0.833333  0.417860
Ga548  Ga  0.303848  0.791667  0.376193
N547  N  0.238465  0.833333  0.365923
N548  N  0.303848  0.791667  0.407590
Ga549  Ga  0.238465  0.833333  0.333860
Ga550  Ga  0.303848  0.791667  0.292193
N549  N  0.238465  0.833333  0.281923
N550  N  0.303848  0.791667  0.323590
Ga551  Ga  0.238465  0.833333  0.500860
Ga552  Ga  0.303848  0.791667  0.459193
N551  N  0.238465  0.833333  0.448923
N552  N  0.303848  0.791667  0.490590
Ga553  Ga  0.238465  0.833333  0.583860
Ga554  Ga  0.303848  0.791667  0.542193
N553  N  0.238465  0.833333  0.531923
N554  N  0.303848  0.791667  0.573590
Ga555  Ga  0.238465  0.833333  0.750860
Ga556  Ga  0.303848  0.791667  0.709193
N555  N  0.238465  0.833333  0.698923
N556  N  0.303848  0.791667  0.740590
Ga557  Ga  0.238465  0.833333  0.667860
Ga558  Ga  0.303848  0.791667  0.626193
N557  N  0.238465  0.833333  0.615923
N558  N  0.303848  0.791667  0.657590
Ga559  Ga  0.238465  0.833333  0.917860
Ga560  Ga  0.303848  0.791667  0.876193
N559  N  0.238465  0.833333  0.865923
N560  N  0.303848  0.791667  0.907590
Ga561  Ga  0.238465  0.833333  0.833860
Ga562  Ga  0.303848  0.791667  0.792193
N561  N  0.238465  0.833333  0.781923
N562  N  0.303848  0.791667  0.823590
Ga563  Ga  0.238465  0.833333  0.083860
Ga564  Ga  0.303848  0.791667  0.042193
N563  N  0.238465  0.833333  0.031923
N564  N  0.303848  0.791667  0.073590
Ga565  Ga  0.238464  0.916667  0.459193
N565  N  0.238464  0.916667  0.490590
Ga566  Ga  0.238464  0.916667  0.626193
N566  N  0.238464  0.916667  0.657590
Ga567  Ga  0.238464  0.916667  0.709193
N567  N  0.238464  0.916667  0.740590
Ga568  Ga  0.238464  0.916667  0.876193
N568  N  0.238464  0.916667  0.907590
Ga569  Ga  0.238464  0.916667  0.792193
N569  N  0.238464  0.916667  0.823590
Ga570  Ga  0.238464  0.916667  0.959193
N570  N  0.238464  0.916667  0.990590
Ga571  Ga  0.238464  0.916667  0.042193
N571  N  0.238464  0.916667  0.073590
Ga572  Ga  0.238464  0.916667  0.209193
N572  N  0.238464  0.916667  0.240590
Ga573  Ga  0.238464  0.916667  0.126193
N573  N  0.238464  0.916667  0.157590
Ga574  Ga  0.238464  0.916667  0.376193
N574  N  0.238464  0.916667  0.407590
Ga575  Ga  0.238464  0.916667  0.292193
N575  N  0.238464  0.916667  0.323590
Ga576  Ga  0.238464  0.916667  0.542193
N576  N  0.238464  0.916667  0.573590
Ga577  Ga  0.761536  0.083333  0.500460
N577  N  0.761536  0.083333  0.448523
Ga578  Ga  0.761536  0.083333  0.667460
N578  N  0.761536  0.083333  0.615523
Ga579  Ga  0.761536  0.083333  0.750460
N579  N  0.761536  0.083333  0.698523
Ga580  Ga  0.761536  0.083333  0.917460
N580  N  0.761536  0.083333  0.865523
Ga581  Ga  0.761536  0.083333  0.833460
N581  N  0.761536  0.083333  0.781523
Ga582  Ga  0.761536  0.083333  0.000460
N582  N  0.761536  0.083333  0.948523
Ga583  Ga  0.761536  0.083333  0.083460
N583  N  0.761536  0.083333  0.031523
Ga584  Ga  0.761536  0.083333  0.250460
N584  N  0.761536  0.083333  0.198523
Ga585  Ga  0.761536  0.083333  0.167460
N585  N  0.761536  0.083333  0.115523
Ga586  Ga  0.761536  0.083333  0.417460
N586  N  0.761536  0.083333  0.365523
Ga587  Ga  0.761536  0.083333  0.333460
N587  N  0.761536  0.083333  0.281523
Ga588  Ga  0.761536  0.083333  0.583460
N588  N  0.761536  0.083333  0.531523
Ga589  Ga  0.696152  0.208333  0.500460
Ga590  Ga  0.761535  0.166667  0.458793
N589  N  0.696152  0.208333  0.448523
N590  N  0.761535  0.166667  0.490190
Ga591  Ga  0.696152  0.208333  0.667460
Ga592  Ga  0.761535  0.166667  0.625793
N591  N  0.696152  0.208333  0.615523
N592  N  0.761535  0.166667  0.657190
Ga593  Ga  0.696152  0.208333  0.750460
Ga594  Ga  0.761535  0.166667  0.708793
N593  N  0.696152  0.208333  0.698523
N594  N  0.761535  0.166667  0.740190
Ga595  Ga  0.696152  0.208333  0.917460
Ga596  Ga  0.761535  0.166667  0.875793
N595  N  0.696152  0.208333  0.865523
N596  N  0.761535  0.166667  0.907190
Ga597  Ga  0.696152  0.208333  0.833460
Ga598  Ga  0.761535  0.166667  0.791793
N597  N  0.696152  0.208333  0.781523
N598  N  0.761535  0.166667  0.823190
Ga599  Ga  0.696152  0.208333  0.000460
Ga600  Ga  0.761535  0.166667  0.958793
N599  N  0.696152  0.208333  0.948523
N600  N  0.761535  0.166667  0.990190
Ga601  Ga  0.696152  0.208333  0.083460
Ga602  Ga  0.761535  0.166667  0.041793
N601  N  0.696152  0.208333  0.031523
N602  N  0.761535  0.166667  0.073190
Ga603  Ga  0.696152  0.208333  0.250460
Ga604  Ga  0.761535  0.166667  0.208793
N603  N  0.696152  0.208333  0.198523
N604  N  0.761535  0.166667  0.240190
Ga605  Ga  0.696152  0.208333  0.167460
Ga606  Ga  0.761535  0.166667  0.125793
N605  N  0.696152  0.208333  0.115523
N606  N  0.761535  0.166667  0.157190
Ga607  Ga  0.696152  0.208333  0.417460
Ga608  Ga  0.761535  0.166667  0.375793
N607  N  0.696152  0.208333  0.365523
N608  N  0.761535  0.166667  0.407190
Ga609  Ga  0.696152  0.208333  0.333460
Ga610  Ga  0.761535  0.166667  0.291793
N609  N  0.696152  0.208333  0.281523
N610  N  0.761535  0.166667  0.323190
Ga611  Ga  0.696152  0.208333  0.583460
Ga612  Ga  0.761535  0.166667  0.541793
N611  N  0.696152  0.208333  0.531523
N612  N  0.761535  0.166667  0.573190
Ga613  Ga  0.630768  0.333333  0.500660
Ga614  Ga  0.696151  0.291667  0.458993
N613  N  0.630768  0.333333  0.448723
N614  N  0.696151  0.291667  0.490390
Ga615  Ga  0.630768  0.333333  0.667660
Ga616  Ga  0.696151  0.291667  0.625993
N615  N  0.630768  0.333333  0.615723
N616  N  0.696151  0.291667  0.657390
Ga617  Ga  0.630768  0.333333  0.750660
Ga618  Ga  0.696151  0.291667  0.708993
N617  N  0.630768  0.333333  0.698723
N618  N  0.696151  0.291667  0.740390
Ga619  Ga  0.630768  0.333333  0.917660
Ga620  Ga  0.696151  0.291667  0.875993
N619  N  0.630768  0.333333  0.865723
N620  N  0.696151  0.291667  0.907390
Ga621  Ga  0.630768  0.333333  0.833660
Ga622  Ga  0.696151  0.291667  0.791993
N621  N  0.630768  0.333333  0.781723
N622  N  0.696151  0.291667  0.823390
Ga623  Ga  0.630768  0.333333  0.000660
Ga624  Ga  0.696151  0.291667  0.958993
N623  N  0.630768  0.333333  0.948723
N624  N  0.696151  0.291667  0.990390
Ga625  Ga  0.630768  0.333333  0.083660
Ga626  Ga  0.696151  0.291667  0.041993
N625  N  0.630768  0.333333  0.031723
N626  N  0.696151  0.291667  0.073390
Ga627  Ga  0.630768  0.333333  0.250660
Ga628  Ga  0.696151  0.291667  0.208993
N627  N  0.630768  0.333333  0.198723
N628  N  0.696151  0.291667  0.240390
Ga629  Ga  0.630768  0.333333  0.167660
Ga630  Ga  0.696151  0.291667  0.125993
N629  N  0.630768  0.333333  0.115723
N630  N  0.696151  0.291667  0.157390
Ga631  Ga  0.630768  0.333333  0.417660
Ga632  Ga  0.696151  0.291667  0.375993
N631  N  0.630768  0.333333  0.365723
N632  N  0.696151  0.291667  0.407390
Ga633  Ga  0.630768  0.333333  0.333660
Ga634  Ga  0.696151  0.291667  0.291993
N633  N  0.630768  0.333333  0.281723
N634  N  0.696151  0.291667  0.323390
Ga635  Ga  0.630768  0.333333  0.583660
Ga636  Ga  0.696151  0.291667  0.541993
N635  N  0.630768  0.333333  0.531723
N636  N  0.696151  0.291667  0.573390
Ga637  Ga  0.565384  0.458333  0.667660
Ga638  Ga  0.630767  0.416667  0.625993
N637  N  0.565384  0.458333  0.615723
N638  N  0.630767  0.416667  0.657390
Ga639  Ga  0.565384  0.458333  0.834660
Ga640  Ga  0.630767  0.416667  0.792993
N639  N  0.565384  0.458333  0.782723
N640  N  0.630767  0.416667  0.824390
Ga641  Ga  0.565384  0.458333  0.917660
Ga642  Ga  0.630767  0.416667  0.875993
N641  N  0.565384  0.458333  0.865723
N642  N  0.630767  0.416667  0.907390
Ga643  Ga  0.565384  0.458333  0.084660
Ga644  Ga  0.630767  0.416667  0.042993
N643  N  0.565384  0.458333  0.032723
N644  N  0.630767  0.416667  0.074390
Ga645  Ga  0.565384  0.458333  0.000660
Ga646  Ga  0.630767  0.416667  0.958993
N645  N  0.565384  0.458333  0.948723
N646  N  0.630767  0.416667  0.990390
Ga647  Ga  0.565384  0.458333  0.167660
Ga648  Ga  0.630767  0.416667  0.125993
N647  N  0.565384  0.458333  0.115723
N648  N  0.630767  0.416667  0.157390
Ga649  Ga  0.565384  0.458333  0.250660
Ga650  Ga  0.630767  0.416667  0.208993
N649  N  0.565384  0.458333  0.198723
N650  N  0.630767  0.416667  0.240390
Ga651  Ga  0.565384  0.458333  0.417660
Ga652  Ga  0.630767  0.416667  0.375993
N651  N  0.565384  0.458333  0.365723
N652  N  0.630767  0.416667  0.407390
Ga653  Ga  0.565384  0.458333  0.334660
Ga654  Ga  0.630767  0.416667  0.292993
N653  N  0.565384  0.458333  0.282723
N654  N  0.630767  0.416667  0.324390
Ga655  Ga  0.565384  0.458333  0.584660
Ga656  Ga  0.630767  0.416667  0.542993
N655  N  0.565384  0.458333  0.532723
N656  N  0.630767  0.416667  0.574390
Ga657  Ga  0.565384  0.458333  0.500660
Ga658  Ga  0.630767  0.416667  0.458993
N657  N  0.565384  0.458333  0.448723
N658  N  0.630767  0.416667  0.490390
Ga659  Ga  0.565384  0.458333  0.750660
Ga660  Ga  0.630767  0.416667  0.708993
N659  N  0.565384  0.458333  0.698723
N660  N  0.630767  0.416667  0.740390
Ga661  Ga  0.500001  0.583333  0.917660
Ga662  Ga  0.565383  0.541667  0.875993
N661  N  0.500001  0.583333  0.865723
N662  N  0.565383  0.541667  0.907390
Ga663  Ga  0.500001  0.583333  0.084660
Ga664  Ga  0.565383  0.541667  0.042993
N663  N  0.500001  0.583333  0.032723
N664  N  0.565383  0.541667  0.074390
Ga665  Ga  0.500001  0.583333  0.167660
Ga666  Ga  0.565383  0.541667  0.125993
N665  N  0.500001  0.583333  0.115723
N666  N  0.565383  0.541667  0.157390
Ga667  Ga  0.500001  0.583333  0.334660
Ga668  Ga  0.565383  0.541667  0.292993
N667  N  0.500001  0.583333  0.282723
N668  N  0.565383  0.541667  0.324390
Ga669  Ga  0.500001  0.583333  0.250660
Ga670  Ga  0.565383  0.541667  0.208993
N669  N  0.500001  0.583333  0.198723
N670  N  0.565383  0.541667  0.240390
Ga671  Ga  0.500001  0.583333  0.417660
Ga672  Ga  0.565383  0.541667  0.375993
N671  N  0.500001  0.583333  0.365723
N672  N  0.565383  0.541667  0.407390
Ga673  Ga  0.500001  0.583333  0.500660
Ga674  Ga  0.565383  0.541667  0.458993
N673  N  0.500001  0.583333  0.448723
N674  N  0.565383  0.541667  0.490390
Ga675  Ga  0.500001  0.583333  0.667660
Ga676  Ga  0.565383  0.541667  0.625993
N675  N  0.500001  0.583333  0.615723
N676  N  0.565383  0.541667  0.657390
Ga677  Ga  0.500001  0.583333  0.584660
Ga678  Ga  0.565383  0.541667  0.542993
N677  N  0.500001  0.583333  0.532723
N678  N  0.565383  0.541667  0.574390
Ga679  Ga  0.500001  0.583333  0.834660
Ga680  Ga  0.565383  0.541667  0.792993
N679  N  0.500001  0.583333  0.782723
N680  N  0.565383  0.541667  0.824390
Ga681  Ga  0.500001  0.583333  0.750660
Ga682  Ga  0.565383  0.541667  0.708993
N681  N  0.500001  0.583333  0.698723
N682  N  0.565383  0.541667  0.740390
Ga683  Ga  0.500001  0.583333  0.000660
Ga684  Ga  0.565383  0.541667  0.958993
N683  N  0.500001  0.583333  0.948723
N684  N  0.565383  0.541667  0.990390
Ga685  Ga  0.434617  0.708333  0.250660
Ga686  Ga  0.499999  0.666667  0.208993
N685  N  0.434617  0.708333  0.198723
N686  N  0.499999  0.666667  0.240390
Ga687  Ga  0.434617  0.708333  0.417660
Ga688  Ga  0.499999  0.666667  0.375993
N687  N  0.434617  0.708333  0.365723
N688  N  0.499999  0.666667  0.407390
Ga689  Ga  0.434617  0.708333  0.500660
Ga690  Ga  0.499999  0.666667  0.458993
N689  N  0.434617  0.708333  0.448723
N690  N  0.499999  0.666667  0.490390
Ga691  Ga  0.434617  0.708333  0.667660
Ga692  Ga  0.499999  0.666667  0.625993
N691  N  0.434617  0.708333  0.615723
N692  N  0.499999  0.666667  0.657390
Ga693  Ga  0.434617  0.708333  0.583660
Ga694  Ga  0.499999  0.666667  0.541993
N693  N  0.434617  0.708333  0.531723
N694  N  0.499999  0.666667  0.573390
Ga695  Ga  0.434617  0.708333  0.750660
Ga696  Ga  0.499999  0.666667  0.708993
N695  N  0.434617  0.708333  0.698723
N696  N  0.499999  0.666667  0.740390
Ga697  Ga  0.434617  0.708333  0.833660
Ga698  Ga  0.499999  0.666667  0.791993
N697  N  0.434617  0.708333  0.781723
N698  N  0.499999  0.666667  0.823390
Ga699  Ga  0.434617  0.708333  0.000660
Ga700  Ga  0.499999  0.666667  0.958993
N699  N  0.434617  0.708333  0.948723
N700  N  0.499999  0.666667  0.990390
Ga701  Ga  0.434617  0.708333  0.917660
Ga702  Ga  0.499999  0.666667  0.875993
N701  N  0.434617  0.708333  0.865723
N702  N  0.499999  0.666667  0.907390
Ga703  Ga  0.434617  0.708333  0.167660
Ga704  Ga  0.499999  0.666667  0.125993
N703  N  0.434617  0.708333  0.115723
N704  N  0.499999  0.666667  0.157390
Ga705  Ga  0.434617  0.708333  0.083660
Ga706  Ga  0.499999  0.666667  0.041993
N705  N  0.434617  0.708333  0.031723
N706  N  0.499999  0.666667  0.073390
Ga707  Ga  0.434617  0.708333  0.333660
Ga708  Ga  0.499999  0.666667  0.291993
N707  N  0.434617  0.708333  0.281723
N708  N  0.499999  0.666667  0.323390
Ga709  Ga  0.369233  0.833333  0.250860
Ga710  Ga  0.434616  0.791667  0.209193
N709  N  0.369233  0.833333  0.198923
N710  N  0.434616  0.791667  0.240590
Ga711  Ga  0.369233  0.833333  0.417860
Ga712  Ga  0.434616  0.791667  0.376193
N711  N  0.369233  0.833333  0.365923
N712  N  0.434616  0.791667  0.407590
Ga713  Ga  0.369233  0.833333  0.500860
Ga714  Ga  0.434616  0.791667  0.459193
N713  N  0.369233  0.833333  0.448923
N714  N  0.434616  0.791667  0.490590
Ga715  Ga  0.369233  0.833333  0.667860
Ga716  Ga  0.434616  0.791667  0.626193
N715  N  0.369233  0.833333  0.615923
N716  N  0.434616  0.791667  0.657590
Ga717  Ga  0.369233  0.833333  0.583860
Ga718  Ga  0.434616  0.791667  0.542193
N717  N  0.369233  0.833333  0.531923
N718  N  0.434616  0.791667  0.573590
Ga719  Ga  0.369233  0.833333  0.750860
Ga720  Ga  0.434616  0.791667  0.709193
N719  N  0.369233  0.833333  0.698923
N720  N  0.434616  0.791667  0.740590
Ga721  Ga  0.369233  0.833333  0.833860
Ga722  Ga  0.434616  0.791667  0.792193
N721  N  0.369233  0.833333  0.781923
N722  N  0.434616  0.791667  0.823590
Ga723  Ga  0.369233  0.833333  0.000860
Ga724  Ga  0.434616  0.791667  0.959193
N723  N  0.369233  0.833333  0.948923
N724  N  0.434616  0.791667  0.990590
Ga725  Ga  0.369233  0.833333  0.917860
Ga726  Ga  0.434616  0.791667  0.876193
N725  N  0.369233  0.833333  0.865923
N726  N  0.434616  0.791667  0.907590
Ga727  Ga  0.369233  0.833333  0.167860
Ga728  Ga  0.434616  0.791667  0.126193
N727  N  0.369233  0.833333  0.115923
N728  N  0.434616  0.791667  0.157590
Ga729  Ga  0.369233  0.833333  0.083860
Ga730  Ga  0.434616  0.791667  0.042193
N729  N  0.369233  0.833333  0.031923
N730  N  0.434616  0.791667  0.073590
Ga731  Ga  0.369233  0.833333  0.333860
Ga732  Ga  0.434616  0.791667  0.292193
N731  N  0.369233  0.833333  0.281923
N732  N  0.434616  0.791667  0.323590
Ga733  Ga  0.303849  0.958333  0.750860
Ga734  Ga  0.369232  0.916667  0.709193
N733  N  0.303849  0.958333  0.698923
N734  N  0.369232  0.916667  0.740590
Ga735  Ga  0.303849  0.958333  0.917860
Ga736  Ga  0.369232  0.916667  0.876193
N735  N  0.303849  0.958333  0.865923
N736  N  0.369232  0.916667  0.907590
Ga737  Ga  0.303849  0.958333  0.000860
Ga738  Ga  0.369232  0.916667  0.959193
N737  N  0.303849  0.958333  0.948923
N738  N  0.369232  0.916667  0.990590
Ga739  Ga  0.303849  0.958333  0.167860
Ga740  Ga  0.369232  0.916667  0.126193
N739  N  0.303849  0.958333  0.115923
N740  N  0.369232  0.916667  0.157590
Ga741  Ga  0.303849  0.958333  0.083860
Ga742  Ga  0.369232  0.916667  0.042193
N741  N  0.303849  0.958333  0.031923
N742  N  0.369232  0.916667  0.073590
Ga743  Ga  0.303849  0.958333  0.250860
Ga744  Ga  0.369232  0.916667  0.209193
N743  N  0.303849  0.958333  0.198923
N744  N  0.369232  0.916667  0.240590
Ga745  Ga  0.303849  0.958333  0.333860
Ga746  Ga  0.369232  0.916667  0.292193
N745  N  0.303849  0.958333  0.281923
N746  N  0.369232  0.916667  0.323590
Ga747  Ga  0.303849  0.958333  0.500860
Ga748  Ga  0.369232  0.916667  0.459193
N747  N  0.303849  0.958333  0.448923
N748  N  0.369232  0.916667  0.490590
Ga749  Ga  0.303849  0.958333  0.417860
Ga750  Ga  0.369232  0.916667  0.376193
N749  N  0.303849  0.958333  0.365923
N750  N  0.369232  0.916667  0.407590
Ga751  Ga  0.303849  0.958333  0.667860
Ga752  Ga  0.369232  0.916667  0.626193
N751  N  0.303849  0.958333  0.615923
N752  N  0.369232  0.916667  0.657590
Ga753  Ga  0.303849  0.958333  0.583860
Ga754  Ga  0.369232  0.916667  0.542193
N753  N  0.303849  0.958333  0.531923
N754  N  0.369232  0.916667  0.573590
Ga755  Ga  0.303849  0.958333  0.833860
Ga756  Ga  0.369232  0.916667  0.792193
N755  N  0.303849  0.958333  0.781923
N756  N  0.369232  0.916667  0.823590
Ga757  Ga  0.826919  0.208333  0.833460
N757  N  0.826919  0.208333  0.781523
Ga758  Ga  0.826919  0.208333  0.000460
N758  N  0.826919  0.208333  0.948523
Ga759  Ga  0.826919  0.208333  0.083460
N759  N  0.826919  0.208333  0.031523
Ga760  Ga  0.826919  0.208333  0.250460
N760  N  0.826919  0.208333  0.198523
Ga761  Ga  0.826919  0.208333  0.166460
N761  N  0.826919  0.208333  0.114523
Ga762  Ga  0.826919  0.208333  0.333460
N762  N  0.826919  0.208333  0.281523
Ga763  Ga  0.826919  0.208333  0.416460
N763  N  0.826919  0.208333  0.364523
Ga764  Ga  0.826919  0.208333  0.583460
N764  N  0.826919  0.208333  0.531523
Ga765  Ga  0.826919  0.208333  0.500460
N765  N  0.826919  0.208333  0.448523
Ga766  Ga  0.826919  0.208333  0.750460
N766  N  0.826919  0.208333  0.698523
Ga767  Ga  0.826919  0.208333  0.666460
N767  N  0.826919  0.208333  0.614523
Ga768  Ga  0.826919  0.208333  0.916460
N768  N  0.826919  0.208333  0.864523
Ga769  Ga  0.761536  0.333333  0.833660
Ga770  Ga  0.826918  0.291667  0.791993
N769  N  0.761536  0.333333  0.781723
N770  N  0.826918  0.291667  0.823390
Ga771  Ga  0.761536  0.333333  0.000660
Ga772  Ga  0.826918  0.291667  0.958993
N771  N  0.761536  0.333333  0.948723
N772  N  0.826918  0.291667  0.990390
Ga773  Ga  0.761536  0.333333  0.083660
Ga774  Ga  0.826918  0.291667  0.041993
N773  N  0.761536  0.333333  0.031723
N774  N  0.826918  0.291667  0.073390
Ga775  Ga  0.761536  0.333333  0.250660
Ga776  Ga  0.826918  0.291667  0.208993
N775  N  0.761536  0.333333  0.198723
N776  N  0.826918  0.291667  0.240390
Ga777  Ga  0.761536  0.333333  0.166660
Ga778  Ga  0.826918  0.291667  0.124993
N777  N  0.761536  0.333333  0.114723
N778  N  0.826918  0.291667  0.156390
Ga779  Ga  0.761536  0.333333  0.333660
Ga780  Ga  0.826918  0.291667  0.291993
N779  N  0.761536  0.333333  0.281723
N780  N  0.826918  0.291667  0.323390
Ga781  Ga  0.761536  0.333333  0.416660
Ga782  Ga  0.826918  0.291667  0.374993
N781  N  0.761536  0.333333  0.364723
N782  N  0.826918  0.291667  0.406390
Ga783  Ga  0.761536  0.333333  0.583660
Ga784  Ga  0.826918  0.291667  0.541993
N783  N  0.761536  0.333333  0.531723
N784  N  0.826918  0.291667  0.573390
Ga785  Ga  0.761536  0.333333  0.500660
Ga786  Ga  0.826918  0.291667  0.458993
N785  N  0.761536  0.333333  0.448723
N786  N  0.826918  0.291667  0.490390
Ga787  Ga  0.761536  0.333333  0.750660
Ga788  Ga  0.826918  0.291667  0.708993
N787  N  0.761536  0.333333  0.698723
N788  N  0.826918  0.291667  0.740390
Ga789  Ga  0.761536  0.333333  0.666660
Ga790  Ga  0.826918  0.291667  0.624993
N789  N  0.761536  0.333333  0.614723
N790  N  0.826918  0.291667  0.656390
Ga791  Ga  0.761536  0.333333  0.916660
Ga792  Ga  0.826918  0.291667  0.874993
N791  N  0.761536  0.333333  0.864723
N792  N  0.826918  0.291667  0.906390
Ga793  Ga  0.696152  0.458333  0.000660
Ga794  Ga  0.761535  0.416667  0.958993
N793  N  0.696152  0.458333  0.948723
N794  N  0.761535  0.416667  0.990390
Ga795  Ga  0.696152  0.458333  0.167660
Ga796  Ga  0.761535  0.416667  0.125993
N795  N  0.696152  0.458333  0.115723
N796  N  0.761535  0.416667  0.157390
Ga797  Ga  0.696152  0.458333  0.250660
Ga798  Ga  0.761535  0.416667  0.208993
N797  N  0.696152  0.458333  0.198723
N798  N  0.761535  0.416667  0.240390
Ga799  Ga  0.696152  0.458333  0.417660
Ga800  Ga  0.761535  0.416667  0.375993
N799  N  0.696152  0.458333  0.365723
N800  N  0.761535  0.416667  0.407390
Ga801  Ga  0.696152  0.458333  0.333660
Ga802  Ga  0.761535  0.416667  0.291993
N801  N  0.696152  0.458333  0.281723
N802  N  0.761535  0.416667  0.323390
Ga803  Ga  0.696152  0.458333  0.500660
Ga804  Ga  0.761535  0.416667  0.458993
N803  N  0.696152  0.458333  0.448723
N804  N  0.761535  0.416667  0.490390
Ga805  Ga  0.696152  0.458333  0.583660
Ga806  Ga  0.761535  0.416667  0.541993
N805  N  0.696152  0.458333  0.531723
N806  N  0.761535  0.416667  0.573390
Ga807  Ga  0.696152  0.458333  0.750660
Ga808  Ga  0.761535  0.416667  0.708993
N807  N  0.696152  0.458333  0.698723
N808  N  0.761535  0.416667  0.740390
Ga809  Ga  0.696152  0.458333  0.667660
Ga810  Ga  0.761535  0.416667  0.625993
N809  N  0.696152  0.458333  0.615723
N810  N  0.761535  0.416667  0.657390
Ga811  Ga  0.696152  0.458333  0.917660
Ga812  Ga  0.761535  0.416667  0.875993
N811  N  0.696152  0.458333  0.865723
N812  N  0.761535  0.416667  0.907390
Ga813  Ga  0.696152  0.458333  0.833660
Ga814  Ga  0.761535  0.416667  0.791993
N813  N  0.696152  0.458333  0.781723
N814  N  0.761535  0.416667  0.823390
Ga815  Ga  0.696152  0.458333  0.083660
Ga816  Ga  0.761535  0.416667  0.041993
N815  N  0.696152  0.458333  0.031723
N816  N  0.761535  0.416667  0.073390
Ga817  Ga  0.630768  0.583333  0.250660
Ga818  Ga  0.696151  0.541667  0.208993
N817  N  0.630768  0.583333  0.198723
N818  N  0.696151  0.541667  0.240390
Ga819  Ga  0.630768  0.583333  0.417660
Ga820  Ga  0.696151  0.541667  0.375993
N819  N  0.630768  0.583333  0.365723
N820  N  0.696151  0.541667  0.407390
Ga821  Ga  0.630768  0.583333  0.500660
Ga822  Ga  0.696151  0.541667  0.458993
N821  N  0.630768  0.583333  0.448723
N822  N  0.696151  0.541667  0.490390
Ga823  Ga  0.630768  0.583333  0.667660
Ga824  Ga  0.696151  0.541667  0.625993
N823  N  0.630768  0.583333  0.615723
N824  N  0.696151  0.541667  0.657390
Ga825  Ga  0.630768  0.583333  0.583660
Ga826  Ga  0.696151  0.541667  0.541993
N825  N  0.630768  0.583333  0.531723
N826  N  0.696151  0.541667  0.573390
Ga827  Ga  0.630768  0.583333  0.750660
Ga828  Ga  0.696151  0.541667  0.708993
N827  N  0.630768  0.583333  0.698723
N828  N  0.696151  0.541667  0.740390
Ga829  Ga  0.630768  0.583333  0.833660
Ga830  Ga  0.696151  0.541667  0.791993
N829  N  0.630768  0.583333  0.781723
N830  N  0.696151  0.541667  0.823390
Ga831  Ga  0.630768  0.583333  0.000660
Ga832  Ga  0.696151  0.541667  0.958993
N831  N  0.630768  0.583333  0.948723
N832  N  0.696151  0.541667  0.990390
Ga833  Ga  0.630768  0.583333  0.917660
Ga834  Ga  0.696151  0.541667  0.875993
N833  N  0.630768  0.583333  0.865723
N834  N  0.696151  0.541667  0.907390
Ga835  Ga  0.630768  0.583333  0.167660
Ga836  Ga  0.696151  0.541667  0.125993
N835  N  0.630768  0.583333  0.115723
N836  N  0.696151  0.541667  0.157390
Ga837  Ga  0.630768  0.583333  0.083660
Ga838  Ga  0.696151  0.541667  0.041993
N837  N  0.630768  0.583333  0.031723
N838  N  0.696151  0.541667  0.073390
Ga839  Ga  0.630768  0.583333  0.333660
Ga840  Ga  0.696151  0.541667  0.291993
N839  N  0.630768  0.583333  0.281723
N840  N  0.696151  0.541667  0.323390
Ga841  Ga  0.565384  0.708333  0.583660
Ga842  Ga  0.630767  0.666667  0.541993
N841  N  0.565384  0.708333  0.531723
N842  N  0.630767  0.666667  0.573390
Ga843  Ga  0.565384  0.708333  0.750660
Ga844  Ga  0.630767  0.666667  0.708993
N843  N  0.565384  0.708333  0.698723
N844  N  0.630767  0.666667  0.740390
Ga845  Ga  0.565384  0.708333  0.833660
Ga846  Ga  0.630767  0.666667  0.791993
N845  N  0.565384  0.708333  0.781723
N846  N  0.630767  0.666667  0.823390
Ga847  Ga  0.565384  0.708333  0.000660
Ga848  Ga  0.630767  0.666667  0.958993
N847  N  0.565384  0.708333  0.948723
N848  N  0.630767  0.666667  0.990390
Ga849  Ga  0.565384  0.708333  0.916660
Ga850  Ga  0.630767  0.666667  0.874993
N849  N  0.565384  0.708333  0.864723
N850  N  0.630767  0.666667  0.906390
Ga851  Ga  0.565384  0.708333  0.083660
Ga852  Ga  0.630767  0.666667  0.041993
N851  N  0.565384  0.708333  0.031723
N852  N  0.630767  0.666667  0.073390
Ga853  Ga  0.565384  0.708333  0.166660
Ga854  Ga  0.630767  0.666667  0.124993
N853  N  0.565384  0.708333  0.114723
N854  N  0.630767  0.666667  0.156390
Ga855  Ga  0.565384  0.708333  0.333660
Ga856  Ga  0.630767  0.666667  0.291993
N855  N  0.565384  0.708333  0.281723
N856  N  0.630767  0.666667  0.323390
Ga857  Ga  0.565384  0.708333  0.250660
Ga858  Ga  0.630767  0.666667  0.208993
N857  N  0.565384  0.708333  0.198723
N858  N  0.630767  0.666667  0.240390
Ga859  Ga  0.565384  0.708333  0.500660
Ga860  Ga  0.630767  0.666667  0.458993
N859  N  0.565384  0.708333  0.448723
N860  N  0.630767  0.666667  0.490390
Ga861  Ga  0.565384  0.708333  0.416660
Ga862  Ga  0.630767  0.666667  0.374993
N861  N  0.565384  0.708333  0.364723
N862  N  0.630767  0.666667  0.406390
Ga863  Ga  0.565384  0.708333  0.666660
Ga864  Ga  0.630767  0.666667  0.624993
N863  N  0.565384  0.708333  0.614723
N864  N  0.630767  0.666667  0.656390
Ga865  Ga  0.500000  0.833333  0.583860
Ga866  Ga  0.565383  0.791667  0.542193
N865  N  0.500000  0.833333  0.531923
N866  N  0.565383  0.791667  0.573590
Ga867  Ga  0.500000  0.833333  0.750860
Ga868  Ga  0.565383  0.791667  0.709193
N867  N  0.500000  0.833333  0.698923
N868  N  0.565383  0.791667  0.740590
Ga869  Ga  0.500000  0.833333  0.833860
Ga870  Ga  0.565383  0.791667  0.792193
N869  N  0.500000  0.833333  0.781923
N870  N  0.565383  0.791667  0.823590
Ga871  Ga  0.500000  0.833333  0.000860
Ga872  Ga  0.565383  0.791667  0.959193
N871  N  0.500000  0.833333  0.948923
N872  N  0.565383  0.791667  0.990590
Ga873  Ga  0.500000  0.833333  0.916860
Ga874  Ga  0.565383  0.791667  0.875193
N873  N  0.500000  0.833333  0.864923
N874  N  0.565383  0.791667  0.906590
Ga875  Ga  0.500000  0.833333  0.083860
Ga876  Ga  0.565383  0.791667  0.042193
N875  N  0.500000  0.833333  0.031923
N876  N  0.565383  0.791667  0.073590
Ga877  Ga  0.500000  0.833333  0.166860
Ga878  Ga  0.565383  0.791667  0.125193
N877  N  0.500000  0.833333  0.114923
N878  N  0.565383  0.791667  0.156590
Ga879  Ga  0.500000  0.833333  0.333860
Ga880  Ga  0.565383  0.791667  0.292193
N879  N  0.500000  0.833333  0.281923
N880  N  0.565383  0.791667  0.323590
Ga881  Ga  0.500000  0.833333  0.250860
Ga882  Ga  0.565383  0.791667  0.209193
N881  N  0.500000  0.833333  0.198923
N882  N  0.565383  0.791667  0.240590
Ga883  Ga  0.500000  0.833333  0.500860
Ga884  Ga  0.565383  0.791667  0.459193
N883  N  0.500000  0.833333  0.448923
N884  N  0.565383  0.791667  0.490590
Ga885  Ga  0.500000  0.833333  0.416860
Ga886  Ga  0.565383  0.791667  0.375193
N885  N  0.500000  0.833333  0.364923
N886  N  0.565383  0.791667  0.406590
Ga887  Ga  0.500000  0.833333  0.666860
Ga888  Ga  0.565383  0.791667  0.625193
N887  N  0.500000  0.833333  0.614923
N888  N  0.565383  0.791667  0.656590
Ga889  Ga  0.434617  0.958333  0.083860
Ga890  Ga  0.499999  0.916667  0.042193
N889  N  0.434617  0.958333  0.031923
N890  N  0.499999  0.916667  0.073590
Ga891  Ga  0.434617  0.958333  0.250860
Ga892  Ga  0.499999  0.916667  0.209193
N891  N  0.434617  0.958333  0.198923
N892  N  0.499999  0.916667  0.240590
Ga893  Ga  0.434617  0.958333  0.333860
Ga894  Ga  0.499999  0.916667  0.292193
N893  N  0.434617  0.958333  0.281923
N894  N  0.499999  0.916667  0.323590
Ga895  Ga  0.434617  0.958333  0.500860
Ga896  Ga  0.499999  0.916667  0.459193
N895  N  0.434617  0.958333  0.448923
N896  N  0.499999  0.916667  0.490590
Ga897  Ga  0.434617  0.958333  0.416860
Ga898  Ga  0.499999  0.916667  0.375193
N897  N  0.434617  0.958333  0.364923
N898  N  0.499999  0.916667  0.406590
Ga899  Ga  0.434617  0.958333  0.583860
Ga900  Ga  0.499999  0.916667  0.542193
N899  N  0.434617  0.958333  0.531923
N900  N  0.499999  0.916667  0.573590
Ga901  Ga  0.434617  0.958333  0.666860
Ga902  Ga  0.499999  0.916667  0.625193
N901  N  0.434617  0.958333  0.614923
N902  N  0.499999  0.916667  0.656590
Ga903  Ga  0.434617  0.958333  0.833860
Ga904  Ga  0.499999  0.916667  0.792193
N903  N  0.434617  0.958333  0.781923
N904  N  0.499999  0.916667  0.823590
Ga905  Ga  0.434617  0.958333  0.750860
Ga906  Ga  0.499999  0.916667  0.709193
N905  N  0.434617  0.958333  0.698923
N906  N  0.499999  0.916667  0.740590
Ga907  Ga  0.434617  0.958333  0.000860
Ga908  Ga  0.499999  0.916667  0.959193
N907  N  0.434617  0.958333  0.948923
N908  N  0.499999  0.916667  0.990590
Ga909  Ga  0.434617  0.958333  0.916860
Ga910  Ga  0.499999  0.916667  0.875193
N909  N  0.434617  0.958333  0.864923
N910  N  0.499999  0.916667  0.906590
Ga911  Ga  0.434617  0.958333  0.166860
Ga912  Ga  0.499999  0.916667  0.125193
N911  N  0.434617  0.958333  0.114923
N912  N  0.499999  0.916667  0.156590
Ga913  Ga  0.892303  0.333333  0.833860
N913  N  0.892303  0.333333  0.781923
Ga914  Ga  0.892303  0.333333  0.000860
N914  N  0.892303  0.333333  0.948923
Ga915  Ga  0.892303  0.333333  0.083860
N915  N  0.892303  0.333333  0.031923
Ga916  Ga  0.892303  0.333333  0.250860
N916  N  0.892303  0.333333  0.198923
Ga917  Ga  0.892303  0.333333  0.166860
N917  N  0.892303  0.333333  0.114923
Ga918  Ga  0.892303  0.333333  0.333860
N918  N  0.892303  0.333333  0.281923
Ga919  Ga  0.892303  0.333333  0.416860
N919  N  0.892303  0.333333  0.364923
Ga920  Ga  0.892303  0.333333  0.583860
N920  N  0.892303  0.333333  0.531923
Ga921  Ga  0.892303  0.333333  0.500860
N921  N  0.892303  0.333333  0.448923
Ga922  Ga  0.892303  0.333333  0.750860
N922  N  0.892303  0.333333  0.698923
Ga923  Ga  0.892303  0.333333  0.666860
N923  N  0.892303  0.333333  0.614923
Ga924  Ga  0.892303  0.333333  0.916860
N924  N  0.892303  0.333333  0.864923
Ga925  Ga  0.826919  0.458333  0.000860
Ga926  Ga  0.892302  0.416667  0.959193
N925  N  0.826919  0.458333  0.948923
N926  N  0.892302  0.416667  0.990590
Ga927  Ga  0.826919  0.458333  0.167860
Ga928  Ga  0.892302  0.416667  0.126193
N927  N  0.826919  0.458333  0.115923
N928  N  0.892302  0.416667  0.157590
Ga929  Ga  0.826919  0.458333  0.250860
Ga930  Ga  0.892302  0.416667  0.209193
N929  N  0.826919  0.458333  0.198923
N930  N  0.892302  0.416667  0.240590
Ga931  Ga  0.826919  0.458333  0.417860
Ga932  Ga  0.892302  0.416667  0.376193
N931  N  0.826919  0.458333  0.365923
N932  N  0.892302  0.416667  0.407590
Ga933  Ga  0.826919  0.458333  0.333860
Ga934  Ga  0.892302  0.416667  0.292193
N933  N  0.826919  0.458333  0.281923
N934  N  0.892302  0.416667  0.323590
Ga935  Ga  0.826919  0.458333  0.500860
Ga936  Ga  0.892302  0.416667  0.459193
N935  N  0.826919  0.458333  0.448923
N936  N  0.892302  0.416667  0.490590
Ga937  Ga  0.826919  0.458333  0.583860
Ga938  Ga  0.892302  0.416667  0.542193
N937  N  0.826919  0.458333  0.531923
N938  N  0.892302  0.416667  0.573590
Ga939  Ga  0.826919  0.458333  0.750860
Ga940  Ga  0.892302  0.416667  0.709193
N939  N  0.826919  0.458333  0.698923
N940  N  0.892302  0.416667  0.740590
Ga941  Ga  0.826919  0.458333  0.667860
Ga942  Ga  0.892302  0.416667  0.626193
N941  N  0.826919  0.458333  0.615923
N942  N  0.892302  0.416667  0.657590
Ga943  Ga  0.826919  0.458333  0.917860
Ga944  Ga  0.892302  0.416667  0.876193
N943  N  0.826919  0.458333  0.865923
N944  N  0.892302  0.416667  0.907590
Ga945  Ga  0.826919  0.458333  0.833860
Ga946  Ga  0.892302  0.416667  0.792193
N945  N  0.826919  0.458333  0.781923
N946  N  0.892302  0.416667  0.823590
Ga947  Ga  0.826919  0.458333  0.083860
Ga948  Ga  0.892302  0.416667  0.042193
N947  N  0.826919  0.458333  0.031923
N948  N  0.892302  0.416667  0.073590
Ga949  Ga  0.761536  0.583333  0.250860
Ga950  Ga  0.826918  0.541667  0.209193
N949  N  0.761536  0.583333  0.198923
N950  N  0.826918  0.541667  0.240590
Ga951  Ga  0.761536  0.583333  0.417860
Ga952  Ga  0.826918  0.541667  0.376193
N951  N  0.761536  0.583333  0.365923
N952  N  0.826918  0.541667  0.407590
Ga953  Ga  0.761536  0.583333  0.500860
Ga954  Ga  0.826918  0.541667  0.459193
N953  N  0.761536  0.583333  0.448923
N954  N  0.826918  0.541667  0.490590
Ga955  Ga  0.761536  0.583333  0.667860
Ga956  Ga  0.826918  0.541667  0.626193
N955  N  0.761536  0.583333  0.615923
N956  N  0.826918  0.541667  0.657590
Ga957  Ga  0.761536  0.583333  0.583860
Ga958  Ga  0.826918  0.541667  0.542193
N957  N  0.761536  0.583333  0.531923
N958  N  0.826918  0.541667  0.573590
Ga959  Ga  0.761536  0.583333  0.750860
Ga960  Ga  0.826918  0.541667  0.709193
N959  N  0.761536  0.583333  0.698923
N960  N  0.826918  0.541667  0.740590
Ga961  Ga  0.761536  0.583333  0.833860
Ga962  Ga  0.826918  0.541667  0.792193
N961  N  0.761536  0.583333  0.781923
N962  N  0.826918  0.541667  0.823590
Ga963  Ga  0.761536  0.583333  0.000860
Ga964  Ga  0.826918  0.541667  0.959193
N963  N  0.761536  0.583333  0.948923
N964  N  0.826918  0.541667  0.990590
Ga965  Ga  0.761536  0.583333  0.917860
Ga966  Ga  0.826918  0.541667  0.876193
N965  N  0.761536  0.583333  0.865923
N966  N  0.826918  0.541667  0.907590
Ga967  Ga  0.761536  0.583333  0.167860
Ga968  Ga  0.826918  0.541667  0.126193
N967  N  0.761536  0.583333  0.115923
N968  N  0.826918  0.541667  0.157590
Ga969  Ga  0.761536  0.583333  0.083860
Ga970  Ga  0.826918  0.541667  0.042193
N969  N  0.761536  0.583333  0.031923
N970  N  0.826918  0.541667  0.073590
Ga971  Ga  0.761536  0.583333  0.333860
Ga972  Ga  0.826918  0.541667  0.292193
N971  N  0.761536  0.583333  0.281923
N972  N  0.826918  0.541667  0.323590
Ga973  Ga  0.696152  0.708333  0.583860
Ga974  Ga  0.761534  0.666667  0.542193
N973  N  0.696152  0.708333  0.531923
N974  N  0.761534  0.666667  0.573590
Ga975  Ga  0.696152  0.708333  0.750860
Ga976  Ga  0.761534  0.666667  0.709193
N975  N  0.696152  0.708333  0.698923
N976  N  0.761534  0.666667  0.740590
Ga977  Ga  0.696152  0.708333  0.833860
Ga978  Ga  0.761534  0.666667  0.792193
N977  N  0.696152  0.708333  0.781923
N978  N  0.761534  0.666667  0.823590
Ga979  Ga  0.696152  0.708333  0.000860
Ga980  Ga  0.761534  0.666667  0.959193
N979  N  0.696152  0.708333  0.948923
N980  N  0.761534  0.666667  0.990590
Ga981  Ga  0.696152  0.708333  0.916860
Ga982  Ga  0.761534  0.666667  0.875193
N981  N  0.696152  0.708333  0.864923
N982  N  0.761534  0.666667  0.906590
Ga983  Ga  0.696152  0.708333  0.083860
Ga984  Ga  0.761534  0.666667  0.042193
N983  N  0.696152  0.708333  0.031923
N984  N  0.761534  0.666667  0.073590
Ga985  Ga  0.696152  0.708333  0.166860
Ga986  Ga  0.761534  0.666667  0.125193
N985  N  0.696152  0.708333  0.114923
N986  N  0.761534  0.666667  0.156590
Ga987  Ga  0.696152  0.708333  0.333860
Ga988  Ga  0.761534  0.666667  0.292193
N987  N  0.696152  0.708333  0.281923
N988  N  0.761534  0.666667  0.323590
Ga989  Ga  0.696152  0.708333  0.250860
Ga990  Ga  0.761534  0.666667  0.209193
N989  N  0.696152  0.708333  0.198923
N990  N  0.761534  0.666667  0.240590
Ga991  Ga  0.696152  0.708333  0.500860
Ga992  Ga  0.761534  0.666667  0.459193
N991  N  0.696152  0.708333  0.448923
N992  N  0.761534  0.666667  0.490590
Ga993  Ga  0.696152  0.708333  0.416860
Ga994  Ga  0.761534  0.666667  0.375193
N993  N  0.696152  0.708333  0.364923
N994  N  0.761534  0.666667  0.406590
Ga995  Ga  0.696152  0.708333  0.666860
Ga996  Ga  0.761534  0.666667  0.625193
N995  N  0.696152  0.708333  0.614923
N996  N  0.761534  0.666667  0.656590
Ga997  Ga  0.630768  0.833333  0.584060
Ga998  Ga  0.696151  0.791667  0.542393
N997  N  0.630768  0.833333  0.532123
N998  N  0.696151  0.791667  0.573790
Ga999  Ga  0.630768  0.833333  0.751060
Ga1000  Ga  0.696151  0.791667  0.709393
N999  N  0.630768  0.833333  0.699123
N1000  N  0.696151  0.791667  0.740790
Ga1001  Ga  0.630768  0.833333  0.834060
Ga1002  Ga  0.696151  0.791667  0.792393
N1001  N  0.630768  0.833333  0.782123
N1002  N  0.696151  0.791667  0.823790
Ga1003  Ga  0.630768  0.833333  0.001060
Ga1004  Ga  0.696151  0.791667  0.959393
N1003  N  0.630768  0.833333  0.949123
N1004  N  0.696151  0.791667  0.990790
Ga1005  Ga  0.630768  0.833333  0.917060
Ga1006  Ga  0.696151  0.791667  0.875393
N1005  N  0.630768  0.833333  0.865123
N1006  N  0.696151  0.791667  0.906790
Ga1007  Ga  0.630768  0.833333  0.084060
Ga1008  Ga  0.696151  0.791667  0.042393
N1007  N  0.630768  0.833333  0.032123
N1008  N  0.696151  0.791667  0.073790
Ga1009  Ga  0.630768  0.833333  0.167060
Ga1010  Ga  0.696151  0.791667  0.125393
N1009  N  0.630768  0.833333  0.115123
N1010  N  0.696151  0.791667  0.156790
Ga1011  Ga  0.630768  0.833333  0.334060
Ga1012  Ga  0.696151  0.791667  0.292393
N1011  N  0.630768  0.833333  0.282123
N1012  N  0.696151  0.791667  0.323790
Ga1013  Ga  0.630768  0.833333  0.251060
Ga1014  Ga  0.696151  0.791667  0.209393
N1013  N  0.630768  0.833333  0.199123
N1014  N  0.696151  0.791667  0.240790
Ga1015  Ga  0.630768  0.833333  0.501060
Ga1016  Ga  0.696151  0.791667  0.459393
N1015  N  0.630768  0.833333  0.449123
N1016  N  0.696151  0.791667  0.490790
Ga1017  Ga  0.630768  0.833333  0.417060
Ga1018  Ga  0.696151  0.791667  0.375393
N1017  N  0.630768  0.833333  0.365123
N1018  N  0.696151  0.791667  0.406790
Ga1019  Ga  0.630768  0.833333  0.667060
Ga1020  Ga  0.696151  0.791667  0.625393
N1019  N  0.630768  0.833333  0.615123
N1020  N  0.696151  0.791667  0.656790
Ga1021  Ga  0.565384  0.958333  0.084060
Ga1022  Ga  0.630767  0.916667  0.042393
N1021  N  0.565384  0.958333  0.032123
N1022  N  0.630767  0.916667  0.073790
Ga1023  Ga  0.565384  0.958333  0.251060
Ga1024  Ga  0.630767  0.916667  0.209393
N1023  N  0.565384  0.958333  0.199123
N1024  N  0.630767  0.916667  0.240790
Ga1025  Ga  0.565384  0.958333  0.334060
Ga1026  Ga  0.630767  0.916667  0.292393
N1025  N  0.565384  0.958333  0.282123
N1026  N  0.630767  0.916667  0.323790
Ga1027  Ga  0.565384  0.958333  0.501060
Ga1028  Ga  0.630767  0.916667  0.459393
N1027  N  0.565384  0.958333  0.449123
N1028  N  0.630767  0.916667  0.490790
Ga1029  Ga  0.565384  0.958333  0.417060
Ga1030  Ga  0.630767  0.916667  0.375393
N1029  N  0.565384  0.958333  0.365123
N1030  N  0.630767  0.916667  0.406790
Ga1031  Ga  0.565384  0.958333  0.584060
Ga1032  Ga  0.630767  0.916667  0.542393
N1031  N  0.565384  0.958333  0.532123
N1032  N  0.630767  0.916667  0.573790
Ga1033  Ga  0.565384  0.958333  0.667060
Ga1034  Ga  0.630767  0.916667  0.625393
N1033  N  0.565384  0.958333  0.615123
N1034  N  0.630767  0.916667  0.656790
Ga1035  Ga  0.565384  0.958333  0.834060
Ga1036  Ga  0.630767  0.916667  0.792393
N1035  N  0.565384  0.958333  0.782123
N1036  N  0.630767  0.916667  0.823790
Ga1037  Ga  0.565384  0.958333  0.751060
Ga1038  Ga  0.630767  0.916667  0.709393
N1037  N  0.565384  0.958333  0.699123
N1038  N  0.630767  0.916667  0.740790
Ga1039  Ga  0.565384  0.958333  0.001060
Ga1040  Ga  0.630767  0.916667  0.959393
N1039  N  0.565384  0.958333  0.949123
N1040  N  0.630767  0.916667  0.990790
Ga1041  Ga  0.565384  0.958333  0.917060
Ga1042  Ga  0.630767  0.916667  0.875393
N1041  N  0.565384  0.958333  0.865123
N1042  N  0.630767  0.916667  0.906790
Ga1043  Ga  0.565384  0.958333  0.167060
Ga1044  Ga  0.630767  0.916667  0.125393
N1043  N  0.565384  0.958333  0.115123
N1044  N  0.630767  0.916667  0.156790
Ga1045  Ga  0.957687  0.458333  0.500860
N1045  N  0.957687  0.458333  0.448923
Ga1046  Ga  0.957687  0.458333  0.667860
N1046  N  0.957687  0.458333  0.615923
Ga1047  Ga  0.957687  0.458333  0.750860
N1047  N  0.957687  0.458333  0.698923
Ga1048  Ga  0.957687  0.458333  0.917860
N1048  N  0.957687  0.458333  0.865923
Ga1049  Ga  0.957687  0.458333  0.833860
N1049  N  0.957687  0.458333  0.781923
Ga1050  Ga  0.957687  0.458333  0.000860
N1050  N  0.957687  0.458333  0.948923
Ga1051  Ga  0.957687  0.458333  0.083860
N1051  N  0.957687  0.458333  0.031923
Ga1052  Ga  0.957687  0.458333  0.250860
N1052  N  0.957687  0.458333  0.198923
Ga1053  Ga  0.957687  0.458333  0.167860
N1053  N  0.957687  0.458333  0.115923
Ga1054  Ga  0.957687  0.458333  0.417860
N1054  N  0.957687  0.458333  0.365923
Ga1055  Ga  0.957687  0.458333  0.333860
N1055  N  0.957687  0.458333  0.281923
Ga1056  Ga  0.957687  0.458333  0.583860
N1056  N  0.957687  0.458333  0.531923
Ga1057  Ga  0.892303  0.583333  0.750860
Ga1058  Ga  0.957686  0.541667  0.709193
N1057  N  0.892303  0.583333  0.698923
N1058  N  0.957686  0.541667  0.740590
Ga1059  Ga  0.892303  0.583333  0.917860
Ga1060  Ga  0.957686  0.541667  0.876193
N1059  N  0.892303  0.583333  0.865923
N1060  N  0.957686  0.541667  0.907590
Ga1061  Ga  0.892303  0.583333  0.000860
Ga1062  Ga  0.957686  0.541667  0.959193
N1061  N  0.892303  0.583333  0.948923
N1062  N  0.957686  0.541667  0.990590
Ga1063  Ga  0.892303  0.583333  0.167860
Ga1064  Ga  0.957686  0.541667  0.126193
N1063  N  0.892303  0.583333  0.115923
N1064  N  0.957686  0.541667  0.157590
Ga1065  Ga  0.892303  0.583333  0.083860
Ga1066  Ga  0.957686  0.541667  0.042193
N1065  N  0.892303  0.583333  0.031923
N1066  N  0.957686  0.541667  0.073590
Ga1067  Ga  0.892303  0.583333  0.250860
Ga1068  Ga  0.957686  0.541667  0.209193
N1067  N  0.892303  0.583333  0.198923
N1068  N  0.957686  0.541667  0.240590
Ga1069  Ga  0.892303  0.583333  0.333860
Ga1070  Ga  0.957686  0.541667  0.292193
N1069  N  0.892303  0.583333  0.281923
N1070  N  0.957686  0.541667  0.323590
Ga1071  Ga  0.892303  0.583333  0.500860
Ga1072  Ga  0.957686  0.541667  0.459193
N1071  N  0.892303  0.583333  0.448923
N1072  N  0.957686  0.541667  0.490590
Ga1073  Ga  0.892303  0.583333  0.417860
Ga1074  Ga  0.957686  0.541667  0.376193
N1073  N  0.892303  0.583333  0.365923
N1074  N  0.957686  0.541667  0.407590
Ga1075  Ga  0.892303  0.583333  0.667860
Ga1076  Ga  0.957686  0.541667  0.626193
N1075  N  0.892303  0.583333  0.615923
N1076  N  0.957686  0.541667  0.657590
Ga1077  Ga  0.892303  0.583333  0.583860
Ga1078  Ga  0.957686  0.541667  0.542193
N1077  N  0.892303  0.583333  0.531923
N1078  N  0.957686  0.541667  0.573590
Ga1079  Ga  0.892303  0.583333  0.833860
Ga1080  Ga  0.957686  0.541667  0.792193
N1079  N  0.892303  0.583333  0.781923
N1080  N  0.957686  0.541667  0.823590
Ga1081  Ga  0.826919  0.708333  0.083860
Ga1082  Ga  0.892302  0.666667  0.042193
N1081  N  0.826919  0.708333  0.031923
N1082  N  0.892302  0.666667  0.073590
Ga1083  Ga  0.826919  0.708333  0.250860
Ga1084  Ga  0.892302  0.666667  0.209193
N1083  N  0.826919  0.708333  0.198923
N1084  N  0.892302  0.666667  0.240590
Ga1085  Ga  0.826919  0.708333  0.333860
Ga1086  Ga  0.892302  0.666667  0.292193
N1085  N  0.826919  0.708333  0.281923
N1086  N  0.892302  0.666667  0.323590
Ga1087  Ga  0.826919  0.708333  0.500860
Ga1088  Ga  0.892302  0.666667  0.459193
N1087  N  0.826919  0.708333  0.448923
N1088  N  0.892302  0.666667  0.490590
Ga1089  Ga  0.826919  0.708333  0.416860
Ga1090  Ga  0.892302  0.666667  0.375193
N1089  N  0.826919  0.708333  0.364923
N1090  N  0.892302  0.666667  0.406590
Ga1091  Ga  0.826919  0.708333  0.583860
Ga1092  Ga  0.892302  0.666667  0.542193
N1091  N  0.826919  0.708333  0.531923
N1092  N  0.892302  0.666667  0.573590
Ga1093  Ga  0.826919  0.708333  0.666860
Ga1094  Ga  0.892302  0.666667  0.625193
N1093  N  0.826919  0.708333  0.614923
N1094  N  0.892302  0.666667  0.656590
Ga1095  Ga  0.826919  0.708333  0.833860
Ga1096  Ga  0.892302  0.666667  0.792193
N1095  N  0.826919  0.708333  0.781923
N1096  N  0.892302  0.666667  0.823590
Ga1097  Ga  0.826919  0.708333  0.750860
Ga1098  Ga  0.892302  0.666667  0.709193
N1097  N  0.826919  0.708333  0.698923
N1098  N  0.892302  0.666667  0.740590
Ga1099  Ga  0.826919  0.708333  0.000860
Ga1100  Ga  0.892302  0.666667  0.959193
N1099  N  0.826919  0.708333  0.948923
N1100  N  0.892302  0.666667  0.990590
Ga1101  Ga  0.826919  0.708333  0.916860
Ga1102  Ga  0.892302  0.666667  0.875193
N1101  N  0.826919  0.708333  0.864923
N1102  N  0.892302  0.666667  0.906590
Ga1103  Ga  0.826919  0.708333  0.166860
Ga1104  Ga  0.892302  0.666667  0.125193
N1103  N  0.826919  0.708333  0.114923
N1104  N  0.892302  0.666667  0.156590
Ga1105  Ga  0.761536  0.833333  0.084060
Ga1106  Ga  0.826918  0.791667  0.042393
N1105  N  0.761536  0.833333  0.032123
N1106  N  0.826918  0.791667  0.073790
Ga1107  Ga  0.761536  0.833333  0.251060
Ga1108  Ga  0.826918  0.791667  0.209393
N1107  N  0.761536  0.833333  0.199123
N1108  N  0.826918  0.791667  0.240790
Ga1109  Ga  0.761536  0.833333  0.334060
Ga1110  Ga  0.826918  0.791667  0.292393
N1109  N  0.761536  0.833333  0.282123
N1110  N  0.826918  0.791667  0.323790
Ga1111  Ga  0.761536  0.833333  0.501060
Ga1112  Ga  0.826918  0.791667  0.459393
N1111  N  0.761536  0.833333  0.449123
N1112  N  0.826918  0.791667  0.490790
Ga1113  Ga  0.761536  0.833333  0.417060
Ga1114  Ga  0.826918  0.791667  0.375393
N1113  N  0.761536  0.833333  0.365123
N1114  N  0.826918  0.791667  0.406790
Ga1115  Ga  0.761536  0.833333  0.584060
Ga1116  Ga  0.826918  0.791667  0.542393
N1115  N  0.761536  0.833333  0.532123
N1116  N  0.826918  0.791667  0.573790
Ga1117  Ga  0.761536  0.833333  0.667060
Ga1118  Ga  0.826918  0.791667  0.625393
N1117  N  0.761536  0.833333  0.615123
N1118  N  0.826918  0.791667  0.656790
Ga1119  Ga  0.761536  0.833333  0.834060
Ga1120  Ga  0.826918  0.791667  0.792393
N1119  N  0.761536  0.833333  0.782123
N1120  N  0.826918  0.791667  0.823790
Ga1121  Ga  0.761536  0.833333  0.751060
Ga1122  Ga  0.826918  0.791667  0.709393
N1121  N  0.761536  0.833333  0.699123
N1122  N  0.826918  0.791667  0.740790
Ga1123  Ga  0.761536  0.833333  0.001060
Ga1124  Ga  0.826918  0.791667  0.959393
N1123  N  0.761536  0.833333  0.949123
N1124  N  0.826918  0.791667  0.990790
Ga1125  Ga  0.761536  0.833333  0.917060
Ga1126  Ga  0.826918  0.791667  0.875393
N1125  N  0.761536  0.833333  0.865123
N1126  N  0.826918  0.791667  0.906790
Ga1127  Ga  0.761536  0.833333  0.167060
Ga1128  Ga  0.826918  0.791667  0.125393
N1127  N  0.761536  0.833333  0.115123
N1128  N  0.826918  0.791667  0.156790
Ga1129  Ga  0.696152  0.958333  0.584060
Ga1130  Ga  0.761534  0.916667  0.542393
N1129  N  0.696152  0.958333  0.532123
N1130  N  0.761534  0.916667  0.573790
Ga1131  Ga  0.696152  0.958333  0.751060
Ga1132  Ga  0.761534  0.916667  0.709393
N1131  N  0.696152  0.958333  0.699123
N1132  N  0.761534  0.916667  0.740790
Ga1133  Ga  0.696152  0.958333  0.834060
Ga1134  Ga  0.761534  0.916667  0.792393
N1133  N  0.696152  0.958333  0.782123
N1134  N  0.761534  0.916667  0.823790
Ga1135  Ga  0.696152  0.958333  0.001060
Ga1136  Ga  0.761534  0.916667  0.959393
N1135  N  0.696152  0.958333  0.949123
N1136  N  0.761534  0.916667  0.990790
Ga1137  Ga  0.696152  0.958333  0.917060
Ga1138  Ga  0.761534  0.916667  0.875393
N1137  N  0.696152  0.958333  0.865123
N1138  N  0.761534  0.916667  0.906790
Ga1139  Ga  0.696152  0.958333  0.084060
Ga1140  Ga  0.761534  0.916667  0.042393
N1139  N  0.696152  0.958333  0.032123
N1140  N  0.761534  0.916667  0.073790
Ga1141  Ga  0.696152  0.958333  0.167060
Ga1142  Ga  0.761534  0.916667  0.125393
N1141  N  0.696152  0.958333  0.115123
N1142  N  0.761534  0.916667  0.156790
Ga1143  Ga  0.696152  0.958333  0.334060
Ga1144  Ga  0.761534  0.916667  0.292393
N1143  N  0.696152  0.958333  0.282123
N1144  N  0.761534  0.916667  0.323790
Ga1145  Ga  0.696152  0.958333  0.251060
Ga1146  Ga  0.761534  0.916667  0.209393
N1145  N  0.696152  0.958333  0.199123
N1146  N  0.761534  0.916667  0.240790
Ga1147  Ga  0.696152  0.958333  0.501060
Ga1148  Ga  0.761534  0.916667  0.459393
N1147  N  0.696152  0.958333  0.449123
N1148  N  0.761534  0.916667  0.490790
Ga1149  Ga  0.696152  0.958333  0.417060
Ga1150  Ga  0.761534  0.916667  0.375393
N1149  N  0.696152  0.958333  0.365123
N1150  N  0.761534  0.916667  0.406790
Ga1151  Ga  0.696152  0.958333  0.667060
Ga1152  Ga  0.761534  0.916667  0.625393
N1151  N  0.696152  0.958333  0.615123
N1152  N  0.761534  0.916667  0.656790
