_audit_creation_date      'Dec. 30, 2024'
_audit_creation_method    'Draft CIF file generated with Atomsk'
 
_chemical_name_common             ?
_chemical_melting_point           ?
_chemical_formula_iupac           'Ga1677 N2034'
_chemical_formula_moiety          'Ga1677 N2034'
_chemical_formula_sum             'Ga1677 N2034'
_chemical_formula_weight          145415.709
_chemical_compound_source         ?
_chemical_absolute_configuration  ?
_exptl_crystal_description        'EDIT-ENTRY'
_diffrn_measurement_device_type   'EDIT-ENTRY'
 
_space_group_IT_number            1
_space_group_crystal_system       orthorhombic
_symmetry_space_group_name_Hall   'P 1'
_symmetry_space_group_name_H-M    'P 1'
 
loop_
_space_group_symop_operation_xyz
'+x,+y,+z'
 
_cell_length_a                    33.1160
_cell_length_b                    35.1099
_cell_length_c                    70.0920
_cell_angle_alpha                 90.0000
_cell_angle_beta                  90.0000
_cell_angle_gamma                 90.0000
_cell_volume                      81495.9297
 
loop_
 _atom_site_label
 _atom_site_type_symbol
 _atom_site_fract_x
 _atom_site_fract_y
 _atom_site_fract_z
Ga1  Ga  -0.000000  0.366736  0.000000
Ga2  Ga  -0.000000  0.366736  0.954545
Ga3  Ga  -0.000000  0.366736  0.045455
Ga4  Ga  -0.000000  0.366736  0.090909
Ga5  Ga  -0.000000  0.366736  0.136364
Ga6  Ga  -0.000000  0.366736  0.181818
Ga7  Ga  -0.000000  0.366736  0.227273
Ga8  Ga  -0.000000  0.366736  0.272727
Ga9  Ga  -0.000000  0.366736  0.318182
Ga10  Ga  -0.000000  0.366736  0.363636
Ga11  Ga  -0.000000  0.366736  0.409091
Ga12  Ga  -0.000000  0.366736  0.454545
Ga13  Ga  -0.000000  0.366736  0.500000
Ga14  Ga  -0.000000  0.366736  0.545455
Ga15  Ga  -0.000000  0.366736  0.590909
Ga16  Ga  -0.000000  0.366736  0.636364
Ga17  Ga  -0.000000  0.366736  0.681818
Ga18  Ga  -0.000000  0.366736  0.727273
Ga19  Ga  -0.000000  0.366736  0.772727
Ga20  Ga  -0.000000  0.366736  0.818182
Ga21  Ga  -0.000000  0.366736  0.863636
Ga22  Ga  -0.000000  0.366736  0.909091
Ga23  Ga  -0.000000  0.523909  0.000000
Ga24  Ga  -0.000000  0.523909  0.954545
Ga25  Ga  -0.000000  0.523909  0.045455
Ga26  Ga  -0.000000  0.523909  0.090909
Ga27  Ga  -0.000000  0.523909  0.136364
Ga28  Ga  -0.000000  0.523909  0.181818
Ga29  Ga  -0.000000  0.523909  0.227273
Ga30  Ga  -0.000000  0.523909  0.272727
Ga31  Ga  -0.000000  0.523909  0.318182
Ga32  Ga  -0.000000  0.523909  0.363636
Ga33  Ga  -0.000000  0.523909  0.409091
Ga34  Ga  -0.000000  0.523909  0.454545
Ga35  Ga  -0.000000  0.523909  0.500000
Ga36  Ga  -0.000000  0.523909  0.545455
Ga37  Ga  -0.000000  0.523909  0.590909
Ga38  Ga  -0.000000  0.523909  0.636364
Ga39  Ga  -0.000000  0.523909  0.681818
Ga40  Ga  -0.000000  0.523909  0.727273
Ga41  Ga  -0.000000  0.523909  0.772727
Ga42  Ga  -0.000000  0.523909  0.818182
Ga43  Ga  -0.000000  0.523909  0.863636
Ga44  Ga  -0.000000  0.523909  0.909091
Ga45  Ga  -0.000000  0.681081  0.000000
Ga46  Ga  -0.000000  0.681081  0.954545
Ga47  Ga  -0.000000  0.681081  0.045455
Ga48  Ga  -0.000000  0.681081  0.090909
Ga49  Ga  -0.000000  0.681081  0.136364
Ga50  Ga  -0.000000  0.681081  0.181818
Ga51  Ga  -0.000000  0.681081  0.227273
Ga52  Ga  -0.000000  0.681081  0.272727
Ga53  Ga  -0.000000  0.681081  0.318182
Ga54  Ga  -0.000000  0.681081  0.363636
Ga55  Ga  -0.000000  0.681081  0.409091
Ga56  Ga  -0.000000  0.681081  0.454545
Ga57  Ga  -0.000000  0.681081  0.500000
Ga58  Ga  -0.000000  0.681081  0.545455
Ga59  Ga  -0.000000  0.681081  0.590909
Ga60  Ga  -0.000000  0.681081  0.636364
Ga61  Ga  -0.000000  0.681081  0.681818
Ga62  Ga  -0.000000  0.681081  0.727273
Ga63  Ga  -0.000000  0.681081  0.772727
Ga64  Ga  -0.000000  0.681081  0.818182
Ga65  Ga  -0.000000  0.681081  0.863636
Ga66  Ga  -0.000000  0.681081  0.909091
Ga67  Ga  -0.000000  0.838254  0.000000
Ga68  Ga  -0.000000  0.838254  0.954545
Ga69  Ga  -0.000000  0.838254  0.045455
Ga70  Ga  -0.000000  0.838254  0.090909
Ga71  Ga  -0.000000  0.838254  0.136364
Ga72  Ga  -0.000000  0.838254  0.181818
Ga73  Ga  -0.000000  0.838254  0.227273
Ga74  Ga  -0.000000  0.838254  0.272727
Ga75  Ga  -0.000000  0.838254  0.318182
Ga76  Ga  -0.000000  0.838254  0.363636
Ga77  Ga  -0.000000  0.838254  0.409091
Ga78  Ga  -0.000000  0.838254  0.454545
Ga79  Ga  -0.000000  0.838254  0.500000
Ga80  Ga  -0.000000  0.838254  0.545455
Ga81  Ga  -0.000000  0.838254  0.590909
Ga82  Ga  -0.000000  0.838254  0.636364
Ga83  Ga  -0.000000  0.838254  0.681818
Ga84  Ga  -0.000000  0.838254  0.727273
Ga85  Ga  -0.000000  0.838254  0.772727
Ga86  Ga  -0.000000  0.838254  0.818182
Ga87  Ga  -0.000000  0.838254  0.863636
Ga88  Ga  -0.000000  0.838254  0.909091
Ga89  Ga  -0.000000  0.995426  0.000000
Ga90  Ga  -0.000000  0.995426  0.954545
Ga91  Ga  -0.000000  0.995426  0.045455
Ga92  Ga  -0.000000  0.995426  0.090909
Ga93  Ga  -0.000000  0.995426  0.136364
Ga94  Ga  -0.000000  0.995426  0.181818
Ga95  Ga  -0.000000  0.995426  0.227273
Ga96  Ga  -0.000000  0.995426  0.272727
Ga97  Ga  -0.000000  0.995426  0.318182
Ga98  Ga  -0.000000  0.995426  0.363636
Ga99  Ga  -0.000000  0.995426  0.409091
Ga100  Ga  -0.000000  0.995426  0.454545
Ga101  Ga  -0.000000  0.995426  0.500000
Ga102  Ga  -0.000000  0.995426  0.545455
Ga103  Ga  -0.000000  0.995426  0.590909
Ga104  Ga  -0.000000  0.995426  0.636364
Ga105  Ga  -0.000000  0.995426  0.681818
Ga106  Ga  -0.000000  0.995426  0.727273
Ga107  Ga  -0.000000  0.995426  0.772727
Ga108  Ga  -0.000000  0.995426  0.818182
Ga109  Ga  -0.000000  0.995426  0.863636
Ga110  Ga  -0.000000  0.995426  0.909091
Ga111  Ga  -0.000000  1.152599  0.000000
Ga112  Ga  -0.000000  1.152599  0.954545
Ga113  Ga  -0.000000  1.152599  0.045455
Ga114  Ga  -0.000000  1.152599  0.090909
Ga115  Ga  -0.000000  1.152599  0.136364
Ga116  Ga  -0.000000  1.152599  0.181818
Ga117  Ga  -0.000000  1.152599  0.227273
Ga118  Ga  -0.000000  1.152599  0.272727
Ga119  Ga  -0.000000  1.152599  0.318182
Ga120  Ga  -0.000000  1.152599  0.363636
Ga121  Ga  -0.000000  1.152599  0.409091
Ga122  Ga  -0.000000  1.152599  0.454545
Ga123  Ga  -0.000000  1.152599  0.500000
Ga124  Ga  -0.000000  1.152599  0.545455
Ga125  Ga  -0.000000  1.152599  0.590909
Ga126  Ga  -0.000000  1.152599  0.636364
Ga127  Ga  -0.000000  1.152599  0.681818
Ga128  Ga  -0.000000  1.152599  0.727273
Ga129  Ga  -0.000000  1.152599  0.772727
Ga130  Ga  -0.000000  1.152599  0.818182
Ga131  Ga  -0.000000  1.152599  0.863636
Ga132  Ga  -0.000000  1.152599  0.909091
Ga133  Ga  0.156601  0.523909  0.000000
Ga134  Ga  0.156601  0.523909  0.954545
Ga135  Ga  0.156601  0.523909  0.045455
Ga136  Ga  0.156601  0.523909  0.090909
Ga137  Ga  0.156601  0.523909  0.136364
Ga138  Ga  0.156601  0.523909  0.181818
Ga139  Ga  0.156601  0.523909  0.227273
Ga140  Ga  0.156601  0.523909  0.272727
Ga141  Ga  0.156601  0.523909  0.318182
Ga142  Ga  0.156601  0.523909  0.363636
Ga143  Ga  0.156601  0.523909  0.409091
Ga144  Ga  0.156601  0.523909  0.454545
Ga145  Ga  0.156601  0.523909  0.500000
Ga146  Ga  0.156601  0.523909  0.545455
Ga147  Ga  0.156601  0.523909  0.590909
Ga148  Ga  0.156601  0.523909  0.636364
Ga149  Ga  0.156601  0.523909  0.681818
Ga150  Ga  0.156601  0.523909  0.727273
Ga151  Ga  0.156601  0.523909  0.772727
Ga152  Ga  0.156601  0.523909  0.818182
Ga153  Ga  0.156601  0.523909  0.863636
Ga154  Ga  0.156601  0.523909  0.909091
Ga155  Ga  0.156601  0.681081  0.000000
Ga156  Ga  0.156601  0.681081  0.954545
Ga157  Ga  0.156601  0.681081  0.045455
Ga158  Ga  0.156601  0.681081  0.090909
Ga159  Ga  0.156601  0.681081  0.136364
Ga160  Ga  0.156601  0.681081  0.181818
Ga161  Ga  0.156601  0.681081  0.227273
Ga162  Ga  0.156601  0.681081  0.272727
Ga163  Ga  0.156601  0.681081  0.318182
Ga164  Ga  0.156601  0.681081  0.363636
Ga165  Ga  0.156601  0.681081  0.409091
Ga166  Ga  0.156601  0.681081  0.454545
Ga167  Ga  0.156601  0.681081  0.500000
Ga168  Ga  0.156601  0.681081  0.545455
Ga169  Ga  0.156601  0.681081  0.590909
Ga170  Ga  0.156601  0.681081  0.636364
Ga171  Ga  0.156601  0.681081  0.681818
Ga172  Ga  0.156601  0.681081  0.727273
Ga173  Ga  0.156601  0.681081  0.772727
Ga174  Ga  0.156601  0.681081  0.818182
Ga175  Ga  0.156601  0.681081  0.863636
Ga176  Ga  0.156601  0.681081  0.909091
Ga177  Ga  0.156601  0.838254  0.000000
Ga178  Ga  0.156601  0.838254  0.954545
Ga179  Ga  0.156601  0.838254  0.045455
Ga180  Ga  0.156601  0.838254  0.090909
Ga181  Ga  0.156601  0.838254  0.136364
Ga182  Ga  0.156601  0.838254  0.181818
Ga183  Ga  0.156601  0.838254  0.227273
Ga184  Ga  0.156601  0.838254  0.272727
Ga185  Ga  0.156601  0.838254  0.318182
Ga186  Ga  0.156601  0.838254  0.363636
Ga187  Ga  0.156601  0.838254  0.409091
Ga188  Ga  0.156601  0.838254  0.454545
Ga189  Ga  0.156601  0.838254  0.500000
Ga190  Ga  0.156601  0.838254  0.545455
Ga191  Ga  0.156601  0.838254  0.590909
Ga192  Ga  0.156601  0.838254  0.636364
Ga193  Ga  0.156601  0.838254  0.681818
Ga194  Ga  0.156601  0.838254  0.727273
Ga195  Ga  0.156601  0.838254  0.772727
Ga196  Ga  0.156601  0.838254  0.818182
Ga197  Ga  0.156601  0.838254  0.863636
Ga198  Ga  0.156601  0.838254  0.909091
Ga199  Ga  0.156601  0.995426  0.000000
Ga200  Ga  0.156601  0.995426  0.954545
Ga201  Ga  0.156601  0.995426  0.045455
Ga202  Ga  0.156601  0.995426  0.090909
Ga203  Ga  0.156601  0.995426  0.136364
Ga204  Ga  0.156601  0.995426  0.181818
Ga205  Ga  0.156601  0.995426  0.227273
Ga206  Ga  0.156601  0.995426  0.272727
Ga207  Ga  0.156601  0.995426  0.318182
Ga208  Ga  0.156601  0.995426  0.363636
Ga209  Ga  0.156601  0.995426  0.409091
Ga210  Ga  0.156601  0.995426  0.454545
Ga211  Ga  0.156601  0.995426  0.500000
Ga212  Ga  0.156601  0.995426  0.545455
Ga213  Ga  0.156601  0.995426  0.590909
Ga214  Ga  0.156601  0.995426  0.636364
Ga215  Ga  0.156601  0.995426  0.681818
Ga216  Ga  0.156601  0.995426  0.727273
Ga217  Ga  0.156601  0.995426  0.772727
Ga218  Ga  0.156601  0.995426  0.818182
Ga219  Ga  0.156601  0.995426  0.863636
Ga220  Ga  0.156601  0.995426  0.909091
Ga221  Ga  0.156601  1.152599  0.000000
Ga222  Ga  0.156601  1.152599  0.954545
Ga223  Ga  0.156601  1.152599  0.045455
Ga224  Ga  0.156601  1.152599  0.090909
Ga225  Ga  0.156601  1.152599  0.136364
Ga226  Ga  0.156601  1.152599  0.181818
Ga227  Ga  0.156601  1.152599  0.227273
Ga228  Ga  0.156601  1.152599  0.272727
Ga229  Ga  0.156601  1.152599  0.318182
Ga230  Ga  0.156601  1.152599  0.363636
Ga231  Ga  0.156601  1.152599  0.409091
Ga232  Ga  0.156601  1.152599  0.454545
Ga233  Ga  0.156601  1.152599  0.500000
Ga234  Ga  0.156601  1.152599  0.545455
Ga235  Ga  0.156601  1.152599  0.590909
Ga236  Ga  0.156601  1.152599  0.636364
Ga237  Ga  0.156601  1.152599  0.681818
Ga238  Ga  0.156601  1.152599  0.727273
Ga239  Ga  0.156601  1.152599  0.772727
Ga240  Ga  0.156601  1.152599  0.818182
Ga241  Ga  0.156601  1.152599  0.863636
Ga242  Ga  0.156601  1.152599  0.909091
Ga243  Ga  0.313202  0.523909  0.000000
Ga244  Ga  0.313202  0.523909  0.954545
Ga245  Ga  0.313202  0.523909  0.045455
Ga246  Ga  0.313202  0.523909  0.090909
Ga247  Ga  0.313202  0.523909  0.136364
Ga248  Ga  0.313202  0.523909  0.181818
Ga249  Ga  0.313202  0.523909  0.227273
Ga250  Ga  0.313202  0.523909  0.272727
Ga251  Ga  0.313202  0.523909  0.318182
Ga252  Ga  0.313202  0.523909  0.363636
Ga253  Ga  0.313202  0.523909  0.409091
Ga254  Ga  0.313202  0.523909  0.454545
Ga255  Ga  0.313202  0.523909  0.500000
Ga256  Ga  0.313202  0.523909  0.545455
Ga257  Ga  0.313202  0.523909  0.590909
Ga258  Ga  0.313202  0.523909  0.636364
Ga259  Ga  0.313202  0.523909  0.681818
Ga260  Ga  0.313202  0.523909  0.727273
Ga261  Ga  0.313202  0.523909  0.772727
Ga262  Ga  0.313202  0.523909  0.818182
Ga263  Ga  0.313202  0.523909  0.863636
Ga264  Ga  0.313202  0.523909  0.909091
Ga265  Ga  0.313202  0.681081  0.000000
Ga266  Ga  0.313202  0.681081  0.954545
Ga267  Ga  0.313202  0.681081  0.045455
Ga268  Ga  0.313202  0.681081  0.090909
Ga269  Ga  0.313202  0.681081  0.136364
Ga270  Ga  0.313202  0.681081  0.181818
Ga271  Ga  0.313202  0.681081  0.227273
Ga272  Ga  0.313202  0.681081  0.272727
Ga273  Ga  0.313202  0.681081  0.318182
Ga274  Ga  0.313202  0.681081  0.363636
Ga275  Ga  0.313202  0.681081  0.409091
Ga276  Ga  0.313202  0.681081  0.454545
Ga277  Ga  0.313202  0.681081  0.500000
Ga278  Ga  0.313202  0.681081  0.545455
Ga279  Ga  0.313202  0.681081  0.590909
Ga280  Ga  0.313202  0.681081  0.636364
Ga281  Ga  0.313202  0.681081  0.681818
Ga282  Ga  0.313202  0.681081  0.727273
Ga283  Ga  0.313202  0.681081  0.772727
Ga284  Ga  0.313202  0.681081  0.818182
Ga285  Ga  0.313202  0.681081  0.863636
Ga286  Ga  0.313202  0.681081  0.909091
Ga287  Ga  0.313202  0.838254  0.000000
Ga288  Ga  0.313202  0.838254  0.954545
Ga289  Ga  0.313202  0.838254  0.045455
Ga290  Ga  0.313202  0.838254  0.090909
Ga291  Ga  0.313202  0.838254  0.136364
Ga292  Ga  0.313202  0.838254  0.181818
Ga293  Ga  0.313202  0.838254  0.227273
Ga294  Ga  0.313202  0.838254  0.272727
Ga295  Ga  0.313202  0.838254  0.318182
Ga296  Ga  0.313202  0.838254  0.363636
Ga297  Ga  0.313202  0.838254  0.409091
Ga298  Ga  0.313202  0.838254  0.454545
Ga299  Ga  0.313202  0.838254  0.500000
Ga300  Ga  0.313202  0.838254  0.545455
Ga301  Ga  0.313202  0.838254  0.590909
Ga302  Ga  0.313202  0.838254  0.636364
Ga303  Ga  0.313202  0.838254  0.681818
Ga304  Ga  0.313202  0.838254  0.727273
Ga305  Ga  0.313202  0.838254  0.772727
Ga306  Ga  0.313202  0.838254  0.818182
Ga307  Ga  0.313202  0.838254  0.863636
Ga308  Ga  0.313202  0.838254  0.909091
Ga309  Ga  0.313202  0.995426  0.000000
Ga310  Ga  0.313202  0.995426  0.954545
Ga311  Ga  0.313202  0.995426  0.045455
Ga312  Ga  0.313202  0.995426  0.090909
Ga313  Ga  0.313202  0.995426  0.136364
Ga314  Ga  0.313202  0.995426  0.181818
Ga315  Ga  0.313202  0.995426  0.227273
Ga316  Ga  0.313202  0.995426  0.272727
Ga317  Ga  0.313202  0.995426  0.318182
Ga318  Ga  0.313202  0.995426  0.363636
Ga319  Ga  0.313202  0.995426  0.409091
Ga320  Ga  0.313202  0.995426  0.454545
Ga321  Ga  0.313202  0.995426  0.500000
Ga322  Ga  0.313202  0.995426  0.545455
Ga323  Ga  0.313202  0.995426  0.590909
Ga324  Ga  0.313202  0.995426  0.636364
Ga325  Ga  0.313202  0.995426  0.681818
Ga326  Ga  0.313202  0.995426  0.727273
Ga327  Ga  0.313202  0.995426  0.772727
Ga328  Ga  0.313202  0.995426  0.818182
Ga329  Ga  0.313202  0.995426  0.863636
Ga330  Ga  0.313202  0.995426  0.909091
Ga331  Ga  0.469803  0.681081  0.000000
Ga332  Ga  0.469803  0.681081  0.954545
Ga333  Ga  0.469803  0.681081  0.045455
Ga334  Ga  0.469803  0.681081  0.090909
Ga335  Ga  0.469803  0.681081  0.136364
Ga336  Ga  0.469803  0.681081  0.181818
Ga337  Ga  0.469803  0.681081  0.227273
Ga338  Ga  0.469803  0.681081  0.272727
Ga339  Ga  0.469803  0.681081  0.318182
Ga340  Ga  0.469803  0.681081  0.363636
Ga341  Ga  0.469803  0.681081  0.409091
Ga342  Ga  0.469803  0.681081  0.454545
Ga343  Ga  0.469803  0.681081  0.500000
Ga344  Ga  0.469803  0.681081  0.545455
Ga345  Ga  0.469803  0.681081  0.590909
Ga346  Ga  0.469803  0.681081  0.636364
Ga347  Ga  0.469803  0.681081  0.681818
Ga348  Ga  0.469803  0.681081  0.727273
Ga349  Ga  0.469803  0.681081  0.772727
Ga350  Ga  0.469803  0.681081  0.818182
Ga351  Ga  0.469803  0.681081  0.863636
Ga352  Ga  0.469803  0.681081  0.909091
Ga353  Ga  0.469803  0.838254  0.000000
Ga354  Ga  0.469803  0.838254  0.954545
Ga355  Ga  0.469803  0.838254  0.045455
Ga356  Ga  0.469803  0.838254  0.090909
Ga357  Ga  0.469803  0.838254  0.136364
Ga358  Ga  0.469803  0.838254  0.181818
Ga359  Ga  0.469803  0.838254  0.227273
Ga360  Ga  0.469803  0.838254  0.272727
Ga361  Ga  0.469803  0.838254  0.318182
Ga362  Ga  0.469803  0.838254  0.363636
Ga363  Ga  0.469803  0.838254  0.409091
Ga364  Ga  0.469803  0.838254  0.454545
Ga365  Ga  0.469803  0.838254  0.500000
Ga366  Ga  0.469803  0.838254  0.545455
Ga367  Ga  0.469803  0.838254  0.590909
Ga368  Ga  0.469803  0.838254  0.636364
Ga369  Ga  0.469803  0.838254  0.681818
Ga370  Ga  0.469803  0.838254  0.727273
Ga371  Ga  0.469803  0.838254  0.772727
Ga372  Ga  0.469803  0.838254  0.818182
Ga373  Ga  0.469803  0.838254  0.863636
Ga374  Ga  0.469803  0.838254  0.909091
Ga375  Ga  0.469803  0.995426  0.000000
Ga376  Ga  0.469803  0.995426  0.954545
Ga377  Ga  0.469803  0.995426  0.045455
Ga378  Ga  0.469803  0.995426  0.090909
Ga379  Ga  0.469803  0.995426  0.136364
Ga380  Ga  0.469803  0.995426  0.181818
Ga381  Ga  0.469803  0.995426  0.227273
Ga382  Ga  0.469803  0.995426  0.272727
Ga383  Ga  0.469803  0.995426  0.318182
Ga384  Ga  0.469803  0.995426  0.363636
Ga385  Ga  0.469803  0.995426  0.409091
Ga386  Ga  0.469803  0.995426  0.454545
Ga387  Ga  0.469803  0.995426  0.500000
Ga388  Ga  0.469803  0.995426  0.545455
Ga389  Ga  0.469803  0.995426  0.590909
Ga390  Ga  0.469803  0.995426  0.636364
Ga391  Ga  0.469803  0.995426  0.681818
Ga392  Ga  0.469803  0.995426  0.727273
Ga393  Ga  0.469803  0.995426  0.772727
Ga394  Ga  0.469803  0.995426  0.818182
Ga395  Ga  0.469803  0.995426  0.863636
Ga396  Ga  0.469803  0.995426  0.909091
Ga397  Ga  0.626404  0.681081  0.000000
Ga398  Ga  0.626404  0.681081  0.954545
Ga399  Ga  0.626404  0.681081  0.045455
Ga400  Ga  0.626404  0.681081  0.090909
Ga401  Ga  0.626404  0.681081  0.136364
Ga402  Ga  0.626404  0.681081  0.181818
Ga403  Ga  0.626404  0.681081  0.227273
Ga404  Ga  0.626404  0.681081  0.272727
Ga405  Ga  0.626404  0.681081  0.318182
Ga406  Ga  0.626404  0.681081  0.363636
Ga407  Ga  0.626404  0.681081  0.409091
Ga408  Ga  0.626404  0.681081  0.454545
Ga409  Ga  0.626404  0.681081  0.500000
Ga410  Ga  0.626404  0.681081  0.545455
Ga411  Ga  0.626404  0.681081  0.590909
Ga412  Ga  0.626404  0.681081  0.636364
Ga413  Ga  0.626404  0.681081  0.681818
Ga414  Ga  0.626404  0.681081  0.727273
Ga415  Ga  0.626404  0.681081  0.772727
Ga416  Ga  0.626404  0.681081  0.818182
Ga417  Ga  0.626404  0.681081  0.863636
Ga418  Ga  0.626404  0.681081  0.909091
Ga419  Ga  0.626404  0.838254  0.000000
Ga420  Ga  0.626404  0.838254  0.954545
Ga421  Ga  0.626404  0.838254  0.045455
Ga422  Ga  0.626404  0.838254  0.090909
Ga423  Ga  0.626404  0.838254  0.136364
Ga424  Ga  0.626404  0.838254  0.181818
Ga425  Ga  0.626404  0.838254  0.227273
Ga426  Ga  0.626404  0.838254  0.272727
Ga427  Ga  0.626404  0.838254  0.318182
Ga428  Ga  0.626404  0.838254  0.363636
Ga429  Ga  0.626404  0.838254  0.409091
Ga430  Ga  0.626404  0.838254  0.454545
Ga431  Ga  0.626404  0.838254  0.500000
Ga432  Ga  0.626404  0.838254  0.545455
Ga433  Ga  0.626404  0.838254  0.590909
Ga434  Ga  0.626404  0.838254  0.636364
Ga435  Ga  0.626404  0.838254  0.681818
Ga436  Ga  0.626404  0.838254  0.727273
Ga437  Ga  0.626404  0.838254  0.772727
Ga438  Ga  0.626404  0.838254  0.818182
Ga439  Ga  0.626404  0.838254  0.863636
Ga440  Ga  0.626404  0.838254  0.909091
Ga441  Ga  0.783005  0.838254  0.000000
Ga442  Ga  0.783005  0.838254  0.954545
Ga443  Ga  0.783005  0.838254  0.045455
Ga444  Ga  0.783005  0.838254  0.090909
Ga445  Ga  0.783005  0.838254  0.136364
Ga446  Ga  0.783005  0.838254  0.181818
Ga447  Ga  0.783005  0.838254  0.227273
Ga448  Ga  0.783005  0.838254  0.272727
Ga449  Ga  0.783005  0.838254  0.318182
Ga450  Ga  0.783005  0.838254  0.363636
Ga451  Ga  0.783005  0.838254  0.409091
Ga452  Ga  0.783005  0.838254  0.454545
Ga453  Ga  0.783005  0.838254  0.500000
Ga454  Ga  0.783005  0.838254  0.545455
Ga455  Ga  0.783005  0.838254  0.590909
Ga456  Ga  0.783005  0.838254  0.636364
Ga457  Ga  0.783005  0.838254  0.681818
Ga458  Ga  0.783005  0.838254  0.727273
Ga459  Ga  0.783005  0.838254  0.772727
Ga460  Ga  0.783005  0.838254  0.818182
Ga461  Ga  0.783005  0.838254  0.863636
Ga462  Ga  0.783005  0.838254  0.909091
Ga463  Ga  -0.000000  0.445322  0.022727
Ga464  Ga  -0.000000  0.445322  0.068182
Ga465  Ga  -0.000000  0.445322  0.113636
Ga466  Ga  -0.000000  0.445322  0.159091
Ga467  Ga  -0.000000  0.445322  0.204545
Ga468  Ga  -0.000000  0.445322  0.250000
Ga469  Ga  -0.000000  0.445322  0.295455
Ga470  Ga  -0.000000  0.445322  0.340909
Ga471  Ga  -0.000000  0.445322  0.386364
Ga472  Ga  -0.000000  0.445322  0.431818
Ga473  Ga  -0.000000  0.445322  0.477273
Ga474  Ga  -0.000000  0.445322  0.522727
Ga475  Ga  -0.000000  0.445322  0.568182
Ga476  Ga  -0.000000  0.445322  0.613636
Ga477  Ga  -0.000000  0.445322  0.659091
Ga478  Ga  -0.000000  0.445322  0.704545
Ga479  Ga  -0.000000  0.445322  0.750000
Ga480  Ga  -0.000000  0.445322  0.795455
Ga481  Ga  -0.000000  0.445322  0.840909
Ga482  Ga  -0.000000  0.445322  0.886364
Ga483  Ga  -0.000000  0.445322  0.931818
Ga484  Ga  -0.000000  0.602495  0.022727
Ga485  Ga  -0.000000  0.602495  0.068182
Ga486  Ga  -0.000000  0.602495  0.113636
Ga487  Ga  -0.000000  0.602495  0.159091
Ga488  Ga  -0.000000  0.602495  0.204545
Ga489  Ga  -0.000000  0.602495  0.250000
Ga490  Ga  -0.000000  0.602495  0.295455
Ga491  Ga  -0.000000  0.602495  0.340909
Ga492  Ga  -0.000000  0.602495  0.386364
Ga493  Ga  -0.000000  0.602495  0.431818
Ga494  Ga  -0.000000  0.602495  0.477273
Ga495  Ga  -0.000000  0.602495  0.522727
Ga496  Ga  -0.000000  0.602495  0.568182
Ga497  Ga  -0.000000  0.602495  0.613636
Ga498  Ga  -0.000000  0.602495  0.659091
Ga499  Ga  -0.000000  0.602495  0.704545
Ga500  Ga  -0.000000  0.602495  0.750000
Ga501  Ga  -0.000000  0.602495  0.795455
Ga502  Ga  -0.000000  0.602495  0.840909
Ga503  Ga  -0.000000  0.602495  0.886364
Ga504  Ga  -0.000000  0.602495  0.931818
Ga505  Ga  -0.000000  0.759668  0.022727
Ga506  Ga  -0.000000  0.759668  0.068182
Ga507  Ga  -0.000000  0.759668  0.113636
Ga508  Ga  -0.000000  0.759668  0.159091
Ga509  Ga  -0.000000  0.759668  0.204545
Ga510  Ga  -0.000000  0.759668  0.250000
Ga511  Ga  -0.000000  0.759668  0.295455
Ga512  Ga  -0.000000  0.759668  0.340909
Ga513  Ga  -0.000000  0.759668  0.386364
Ga514  Ga  -0.000000  0.759668  0.431818
Ga515  Ga  -0.000000  0.759668  0.477273
Ga516  Ga  -0.000000  0.759668  0.522727
Ga517  Ga  -0.000000  0.759668  0.568182
Ga518  Ga  -0.000000  0.759668  0.613636
Ga519  Ga  -0.000000  0.759668  0.659091
Ga520  Ga  -0.000000  0.759668  0.704545
Ga521  Ga  -0.000000  0.759668  0.750000
Ga522  Ga  -0.000000  0.759668  0.795455
Ga523  Ga  -0.000000  0.759668  0.840909
Ga524  Ga  -0.000000  0.759668  0.886364
Ga525  Ga  -0.000000  0.759668  0.931818
Ga526  Ga  -0.000000  0.916840  0.022727
Ga527  Ga  -0.000000  0.916840  0.068182
Ga528  Ga  -0.000000  0.916840  0.113636
Ga529  Ga  -0.000000  0.916840  0.159091
Ga530  Ga  -0.000000  0.916840  0.204545
Ga531  Ga  -0.000000  0.916840  0.250000
Ga532  Ga  -0.000000  0.916840  0.295455
Ga533  Ga  -0.000000  0.916840  0.340909
Ga534  Ga  -0.000000  0.916840  0.386364
Ga535  Ga  -0.000000  0.916840  0.431818
Ga536  Ga  -0.000000  0.916840  0.477273
Ga537  Ga  -0.000000  0.916840  0.522727
Ga538  Ga  -0.000000  0.916840  0.568182
Ga539  Ga  -0.000000  0.916840  0.613636
Ga540  Ga  -0.000000  0.916840  0.659091
Ga541  Ga  -0.000000  0.916840  0.704545
Ga542  Ga  -0.000000  0.916840  0.750000
Ga543  Ga  -0.000000  0.916840  0.795455
Ga544  Ga  -0.000000  0.916840  0.840909
Ga545  Ga  -0.000000  0.916840  0.886364
Ga546  Ga  -0.000000  0.916840  0.931818
Ga547  Ga  -0.000000  1.074013  0.022727
Ga548  Ga  -0.000000  1.074013  0.068182
Ga549  Ga  -0.000000  1.074013  0.113636
Ga550  Ga  -0.000000  1.074013  0.159091
Ga551  Ga  -0.000000  1.074013  0.204545
Ga552  Ga  -0.000000  1.074013  0.250000
Ga553  Ga  -0.000000  1.074013  0.295455
Ga554  Ga  -0.000000  1.074013  0.340909
Ga555  Ga  -0.000000  1.074013  0.386364
Ga556  Ga  -0.000000  1.074013  0.431818
Ga557  Ga  -0.000000  1.074013  0.477273
Ga558  Ga  -0.000000  1.074013  0.522727
Ga559  Ga  -0.000000  1.074013  0.568182
Ga560  Ga  -0.000000  1.074013  0.613636
Ga561  Ga  -0.000000  1.074013  0.659091
Ga562  Ga  -0.000000  1.074013  0.704545
Ga563  Ga  -0.000000  1.074013  0.750000
Ga564  Ga  -0.000000  1.074013  0.795455
Ga565  Ga  -0.000000  1.074013  0.840909
Ga566  Ga  -0.000000  1.074013  0.886364
Ga567  Ga  -0.000000  1.074013  0.931818
Ga568  Ga  -0.000000  1.231185  0.022727
Ga569  Ga  -0.000000  1.231185  0.068182
Ga570  Ga  -0.000000  1.231185  0.113636
Ga571  Ga  -0.000000  1.231185  0.159091
Ga572  Ga  -0.000000  1.231185  0.204545
Ga573  Ga  -0.000000  1.231185  0.250000
Ga574  Ga  -0.000000  1.231185  0.295455
Ga575  Ga  -0.000000  1.231185  0.340909
Ga576  Ga  -0.000000  1.231185  0.386364
Ga577  Ga  -0.000000  1.231185  0.431818
Ga578  Ga  -0.000000  1.231185  0.477273
Ga579  Ga  -0.000000  1.231185  0.522727
Ga580  Ga  -0.000000  1.231185  0.568182
Ga581  Ga  -0.000000  1.231185  0.613636
Ga582  Ga  -0.000000  1.231185  0.659091
Ga583  Ga  -0.000000  1.231185  0.704545
Ga584  Ga  -0.000000  1.231185  0.750000
Ga585  Ga  -0.000000  1.231185  0.795455
Ga586  Ga  -0.000000  1.231185  0.840909
Ga587  Ga  -0.000000  1.231185  0.886364
Ga588  Ga  -0.000000  1.231185  0.931818
Ga589  Ga  0.156601  0.445322  0.022727
Ga590  Ga  0.156601  0.445322  0.068182
Ga591  Ga  0.156601  0.445322  0.113636
Ga592  Ga  0.156601  0.445322  0.159091
Ga593  Ga  0.156601  0.445322  0.204545
Ga594  Ga  0.156601  0.445322  0.250000
Ga595  Ga  0.156601  0.445322  0.295455
Ga596  Ga  0.156601  0.445322  0.340909
Ga597  Ga  0.156601  0.445322  0.386364
Ga598  Ga  0.156601  0.445322  0.431818
Ga599  Ga  0.156601  0.445322  0.477273
Ga600  Ga  0.156601  0.445322  0.522727
Ga601  Ga  0.156601  0.445322  0.568182
Ga602  Ga  0.156601  0.445322  0.613636
Ga603  Ga  0.156601  0.445322  0.659091
Ga604  Ga  0.156601  0.445322  0.704545
Ga605  Ga  0.156601  0.445322  0.750000
Ga606  Ga  0.156601  0.445322  0.795455
Ga607  Ga  0.156601  0.445322  0.840909
Ga608  Ga  0.156601  0.445322  0.886364
Ga609  Ga  0.156601  0.445322  0.931818
Ga610  Ga  0.156601  0.602495  0.022727
Ga611  Ga  0.156601  0.602495  0.068182
Ga612  Ga  0.156601  0.602495  0.113636
Ga613  Ga  0.156601  0.602495  0.159091
Ga614  Ga  0.156601  0.602495  0.204545
Ga615  Ga  0.156601  0.602495  0.250000
Ga616  Ga  0.156601  0.602495  0.295455
Ga617  Ga  0.156601  0.602495  0.340909
Ga618  Ga  0.156601  0.602495  0.386364
Ga619  Ga  0.156601  0.602495  0.431818
Ga620  Ga  0.156601  0.602495  0.477273
Ga621  Ga  0.156601  0.602495  0.522727
Ga622  Ga  0.156601  0.602495  0.568182
Ga623  Ga  0.156601  0.602495  0.613636
Ga624  Ga  0.156601  0.602495  0.659091
Ga625  Ga  0.156601  0.602495  0.704545
Ga626  Ga  0.156601  0.602495  0.750000
Ga627  Ga  0.156601  0.602495  0.795455
Ga628  Ga  0.156601  0.602495  0.840909
Ga629  Ga  0.156601  0.602495  0.886364
Ga630  Ga  0.156601  0.602495  0.931818
Ga631  Ga  0.156601  0.759668  0.022727
Ga632  Ga  0.156601  0.759668  0.068182
Ga633  Ga  0.156601  0.759668  0.113636
Ga634  Ga  0.156601  0.759668  0.159091
Ga635  Ga  0.156601  0.759668  0.204545
Ga636  Ga  0.156601  0.759668  0.250000
Ga637  Ga  0.156601  0.759668  0.295455
Ga638  Ga  0.156601  0.759668  0.340909
Ga639  Ga  0.156601  0.759668  0.386364
Ga640  Ga  0.156601  0.759668  0.431818
Ga641  Ga  0.156601  0.759668  0.477273
Ga642  Ga  0.156601  0.759668  0.522727
Ga643  Ga  0.156601  0.759668  0.568182
Ga644  Ga  0.156601  0.759668  0.613636
Ga645  Ga  0.156601  0.759668  0.659091
Ga646  Ga  0.156601  0.759668  0.704545
Ga647  Ga  0.156601  0.759668  0.750000
Ga648  Ga  0.156601  0.759668  0.795455
Ga649  Ga  0.156601  0.759668  0.840909
Ga650  Ga  0.156601  0.759668  0.886364
Ga651  Ga  0.156601  0.759668  0.931818
Ga652  Ga  0.156601  0.916840  0.022727
Ga653  Ga  0.156601  0.916840  0.068182
Ga654  Ga  0.156601  0.916840  0.113636
Ga655  Ga  0.156601  0.916840  0.159091
Ga656  Ga  0.156601  0.916840  0.204545
Ga657  Ga  0.156601  0.916840  0.250000
Ga658  Ga  0.156601  0.916840  0.295455
Ga659  Ga  0.156601  0.916840  0.340909
Ga660  Ga  0.156601  0.916840  0.386364
Ga661  Ga  0.156601  0.916840  0.431818
Ga662  Ga  0.156601  0.916840  0.477273
Ga663  Ga  0.156601  0.916840  0.522727
Ga664  Ga  0.156601  0.916840  0.568182
Ga665  Ga  0.156601  0.916840  0.613636
Ga666  Ga  0.156601  0.916840  0.659091
Ga667  Ga  0.156601  0.916840  0.704545
Ga668  Ga  0.156601  0.916840  0.750000
Ga669  Ga  0.156601  0.916840  0.795455
Ga670  Ga  0.156601  0.916840  0.840909
Ga671  Ga  0.156601  0.916840  0.886364
Ga672  Ga  0.156601  0.916840  0.931818
Ga673  Ga  0.156601  1.074013  0.022727
Ga674  Ga  0.156601  1.074013  0.068182
Ga675  Ga  0.156601  1.074013  0.113636
Ga676  Ga  0.156601  1.074013  0.159091
Ga677  Ga  0.156601  1.074013  0.204545
Ga678  Ga  0.156601  1.074013  0.250000
Ga679  Ga  0.156601  1.074013  0.295455
Ga680  Ga  0.156601  1.074013  0.340909
Ga681  Ga  0.156601  1.074013  0.386364
Ga682  Ga  0.156601  1.074013  0.431818
Ga683  Ga  0.156601  1.074013  0.477273
Ga684  Ga  0.156601  1.074013  0.522727
Ga685  Ga  0.156601  1.074013  0.568182
Ga686  Ga  0.156601  1.074013  0.613636
Ga687  Ga  0.156601  1.074013  0.659091
Ga688  Ga  0.156601  1.074013  0.704545
Ga689  Ga  0.156601  1.074013  0.750000
Ga690  Ga  0.156601  1.074013  0.795455
Ga691  Ga  0.156601  1.074013  0.840909
Ga692  Ga  0.156601  1.074013  0.886364
Ga693  Ga  0.156601  1.074013  0.931818
Ga694  Ga  0.313202  0.602495  0.022727
Ga695  Ga  0.313202  0.602495  0.068182
Ga696  Ga  0.313202  0.602495  0.113636
Ga697  Ga  0.313202  0.602495  0.159091
Ga698  Ga  0.313202  0.602495  0.204545
Ga699  Ga  0.313202  0.602495  0.250000
Ga700  Ga  0.313202  0.602495  0.295455
Ga701  Ga  0.313202  0.602495  0.340909
Ga702  Ga  0.313202  0.602495  0.386364
Ga703  Ga  0.313202  0.602495  0.431818
Ga704  Ga  0.313202  0.602495  0.477273
Ga705  Ga  0.313202  0.602495  0.522727
Ga706  Ga  0.313202  0.602495  0.568182
Ga707  Ga  0.313202  0.602495  0.613636
Ga708  Ga  0.313202  0.602495  0.659091
Ga709  Ga  0.313202  0.602495  0.704545
Ga710  Ga  0.313202  0.602495  0.750000
Ga711  Ga  0.313202  0.602495  0.795455
Ga712  Ga  0.313202  0.602495  0.840909
Ga713  Ga  0.313202  0.602495  0.886364
Ga714  Ga  0.313202  0.602495  0.931818
Ga715  Ga  0.313202  0.759668  0.022727
Ga716  Ga  0.313202  0.759668  0.068182
Ga717  Ga  0.313202  0.759668  0.113636
Ga718  Ga  0.313202  0.759668  0.159091
Ga719  Ga  0.313202  0.759668  0.204545
Ga720  Ga  0.313202  0.759668  0.250000
Ga721  Ga  0.313202  0.759668  0.295455
Ga722  Ga  0.313202  0.759668  0.340909
Ga723  Ga  0.313202  0.759668  0.386364
Ga724  Ga  0.313202  0.759668  0.431818
Ga725  Ga  0.313202  0.759668  0.477273
Ga726  Ga  0.313202  0.759668  0.522727
Ga727  Ga  0.313202  0.759668  0.568182
Ga728  Ga  0.313202  0.759668  0.613636
Ga729  Ga  0.313202  0.759668  0.659091
Ga730  Ga  0.313202  0.759668  0.704545
Ga731  Ga  0.313202  0.759668  0.750000
Ga732  Ga  0.313202  0.759668  0.795455
Ga733  Ga  0.313202  0.759668  0.840909
Ga734  Ga  0.313202  0.759668  0.886364
Ga735  Ga  0.313202  0.759668  0.931818
Ga736  Ga  0.313202  0.916840  0.022727
Ga737  Ga  0.313202  0.916840  0.068182
Ga738  Ga  0.313202  0.916840  0.113636
Ga739  Ga  0.313202  0.916840  0.159091
Ga740  Ga  0.313202  0.916840  0.204545
Ga741  Ga  0.313202  0.916840  0.250000
Ga742  Ga  0.313202  0.916840  0.295455
Ga743  Ga  0.313202  0.916840  0.340909
Ga744  Ga  0.313202  0.916840  0.386364
Ga745  Ga  0.313202  0.916840  0.431818
Ga746  Ga  0.313202  0.916840  0.477273
Ga747  Ga  0.313202  0.916840  0.522727
Ga748  Ga  0.313202  0.916840  0.568182
Ga749  Ga  0.313202  0.916840  0.613636
Ga750  Ga  0.313202  0.916840  0.659091
Ga751  Ga  0.313202  0.916840  0.704545
Ga752  Ga  0.313202  0.916840  0.750000
Ga753  Ga  0.313202  0.916840  0.795455
Ga754  Ga  0.313202  0.916840  0.840909
Ga755  Ga  0.313202  0.916840  0.886364
Ga756  Ga  0.313202  0.916840  0.931818
Ga757  Ga  0.313202  1.074013  0.022727
Ga758  Ga  0.313202  1.074013  0.068182
Ga759  Ga  0.313202  1.074013  0.113636
Ga760  Ga  0.313202  1.074013  0.159091
Ga761  Ga  0.313202  1.074013  0.204545
Ga762  Ga  0.313202  1.074013  0.250000
Ga763  Ga  0.313202  1.074013  0.295455
Ga764  Ga  0.313202  1.074013  0.340909
Ga765  Ga  0.313202  1.074013  0.386364
Ga766  Ga  0.313202  1.074013  0.431818
Ga767  Ga  0.313202  1.074013  0.477273
Ga768  Ga  0.313202  1.074013  0.522727
Ga769  Ga  0.313202  1.074013  0.568182
Ga770  Ga  0.313202  1.074013  0.613636
Ga771  Ga  0.313202  1.074013  0.659091
Ga772  Ga  0.313202  1.074013  0.704545
Ga773  Ga  0.313202  1.074013  0.750000
Ga774  Ga  0.313202  1.074013  0.795455
Ga775  Ga  0.313202  1.074013  0.840909
Ga776  Ga  0.313202  1.074013  0.886364
Ga777  Ga  0.313202  1.074013  0.931818
Ga778  Ga  0.469803  0.602495  0.022727
Ga779  Ga  0.469803  0.602495  0.068182
Ga780  Ga  0.469803  0.602495  0.113636
Ga781  Ga  0.469803  0.602495  0.159091
Ga782  Ga  0.469803  0.602495  0.204545
Ga783  Ga  0.469803  0.602495  0.250000
Ga784  Ga  0.469803  0.602495  0.295455
Ga785  Ga  0.469803  0.602495  0.340909
Ga786  Ga  0.469803  0.602495  0.386364
Ga787  Ga  0.469803  0.602495  0.431818
Ga788  Ga  0.469803  0.602495  0.477273
Ga789  Ga  0.469803  0.602495  0.522727
Ga790  Ga  0.469803  0.602495  0.568182
Ga791  Ga  0.469803  0.602495  0.613636
Ga792  Ga  0.469803  0.602495  0.659091
Ga793  Ga  0.469803  0.602495  0.704545
Ga794  Ga  0.469803  0.602495  0.750000
Ga795  Ga  0.469803  0.602495  0.795455
Ga796  Ga  0.469803  0.602495  0.840909
Ga797  Ga  0.469803  0.602495  0.886364
Ga798  Ga  0.469803  0.602495  0.931818
Ga799  Ga  0.469803  0.759668  0.022727
Ga800  Ga  0.469803  0.759668  0.068182
Ga801  Ga  0.469803  0.759668  0.113636
Ga802  Ga  0.469803  0.759668  0.159091
Ga803  Ga  0.469803  0.759668  0.204545
Ga804  Ga  0.469803  0.759668  0.250000
Ga805  Ga  0.469803  0.759668  0.295455
Ga806  Ga  0.469803  0.759668  0.340909
Ga807  Ga  0.469803  0.759668  0.386364
Ga808  Ga  0.469803  0.759668  0.431818
Ga809  Ga  0.469803  0.759668  0.477273
Ga810  Ga  0.469803  0.759668  0.522727
Ga811  Ga  0.469803  0.759668  0.568182
Ga812  Ga  0.469803  0.759668  0.613636
Ga813  Ga  0.469803  0.759668  0.659091
Ga814  Ga  0.469803  0.759668  0.704545
Ga815  Ga  0.469803  0.759668  0.750000
Ga816  Ga  0.469803  0.759668  0.795455
Ga817  Ga  0.469803  0.759668  0.840909
Ga818  Ga  0.469803  0.759668  0.886364
Ga819  Ga  0.469803  0.759668  0.931818
Ga820  Ga  0.469803  0.916840  0.022727
Ga821  Ga  0.469803  0.916840  0.068182
Ga822  Ga  0.469803  0.916840  0.113636
Ga823  Ga  0.469803  0.916840  0.159091
Ga824  Ga  0.469803  0.916840  0.204545
Ga825  Ga  0.469803  0.916840  0.250000
Ga826  Ga  0.469803  0.916840  0.295455
Ga827  Ga  0.469803  0.916840  0.340909
Ga828  Ga  0.469803  0.916840  0.386364
Ga829  Ga  0.469803  0.916840  0.431818
Ga830  Ga  0.469803  0.916840  0.477273
Ga831  Ga  0.469803  0.916840  0.522727
Ga832  Ga  0.469803  0.916840  0.568182
Ga833  Ga  0.469803  0.916840  0.613636
Ga834  Ga  0.469803  0.916840  0.659091
Ga835  Ga  0.469803  0.916840  0.704545
Ga836  Ga  0.469803  0.916840  0.750000
Ga837  Ga  0.469803  0.916840  0.795455
Ga838  Ga  0.469803  0.916840  0.840909
Ga839  Ga  0.469803  0.916840  0.886364
Ga840  Ga  0.469803  0.916840  0.931818
Ga841  Ga  0.626404  0.759668  0.022727
Ga842  Ga  0.626404  0.759668  0.068182
Ga843  Ga  0.626404  0.759668  0.113636
Ga844  Ga  0.626404  0.759668  0.159091
Ga845  Ga  0.626404  0.759668  0.204545
Ga846  Ga  0.626404  0.759668  0.250000
Ga847  Ga  0.626404  0.759668  0.295455
Ga848  Ga  0.626404  0.759668  0.340909
Ga849  Ga  0.626404  0.759668  0.386364
Ga850  Ga  0.626404  0.759668  0.431818
Ga851  Ga  0.626404  0.759668  0.477273
Ga852  Ga  0.626404  0.759668  0.522727
Ga853  Ga  0.626404  0.759668  0.568182
Ga854  Ga  0.626404  0.759668  0.613636
Ga855  Ga  0.626404  0.759668  0.659091
Ga856  Ga  0.626404  0.759668  0.704545
Ga857  Ga  0.626404  0.759668  0.750000
Ga858  Ga  0.626404  0.759668  0.795455
Ga859  Ga  0.626404  0.759668  0.840909
Ga860  Ga  0.626404  0.759668  0.886364
Ga861  Ga  0.626404  0.759668  0.931818
Ga862  Ga  0.626404  0.916840  0.022727
Ga863  Ga  0.626404  0.916840  0.068182
Ga864  Ga  0.626404  0.916840  0.113636
Ga865  Ga  0.626404  0.916840  0.159091
Ga866  Ga  0.626404  0.916840  0.204545
Ga867  Ga  0.626404  0.916840  0.250000
Ga868  Ga  0.626404  0.916840  0.295455
Ga869  Ga  0.626404  0.916840  0.340909
Ga870  Ga  0.626404  0.916840  0.386364
Ga871  Ga  0.626404  0.916840  0.431818
Ga872  Ga  0.626404  0.916840  0.477273
Ga873  Ga  0.626404  0.916840  0.522727
Ga874  Ga  0.626404  0.916840  0.568182
Ga875  Ga  0.626404  0.916840  0.613636
Ga876  Ga  0.626404  0.916840  0.659091
Ga877  Ga  0.626404  0.916840  0.704545
Ga878  Ga  0.626404  0.916840  0.750000
Ga879  Ga  0.626404  0.916840  0.795455
Ga880  Ga  0.626404  0.916840  0.840909
Ga881  Ga  0.626404  0.916840  0.886364
Ga882  Ga  0.626404  0.916840  0.931818
Ga883  Ga  0.783005  0.759668  0.022727
Ga884  Ga  0.783005  0.759668  0.068182
Ga885  Ga  0.783005  0.759668  0.113636
Ga886  Ga  0.783005  0.759668  0.159091
Ga887  Ga  0.783005  0.759668  0.204545
Ga888  Ga  0.783005  0.759668  0.250000
Ga889  Ga  0.783005  0.759668  0.295455
Ga890  Ga  0.783005  0.759668  0.340909
Ga891  Ga  0.783005  0.759668  0.386364
Ga892  Ga  0.783005  0.759668  0.431818
Ga893  Ga  0.783005  0.759668  0.477273
Ga894  Ga  0.783005  0.759668  0.522727
Ga895  Ga  0.783005  0.759668  0.568182
Ga896  Ga  0.783005  0.759668  0.613636
Ga897  Ga  0.783005  0.759668  0.659091
Ga898  Ga  0.783005  0.759668  0.704545
Ga899  Ga  0.783005  0.759668  0.750000
Ga900  Ga  0.783005  0.759668  0.795455
Ga901  Ga  0.783005  0.759668  0.840909
Ga902  Ga  0.783005  0.759668  0.886364
Ga903  Ga  0.783005  0.759668  0.931818
Ga904  Ga  0.078301  0.419127  0.000000
Ga905  Ga  0.078301  0.419127  0.954545
Ga906  Ga  0.078301  0.419127  0.045455
Ga907  Ga  0.078301  0.419127  0.090909
Ga908  Ga  0.078301  0.419127  0.136364
Ga909  Ga  0.078301  0.419127  0.181818
Ga910  Ga  0.078301  0.419127  0.227273
Ga911  Ga  0.078301  0.419127  0.272727
Ga912  Ga  0.078301  0.419127  0.318182
Ga913  Ga  0.078301  0.419127  0.363636
Ga914  Ga  0.078301  0.419127  0.409091
Ga915  Ga  0.078301  0.419127  0.454545
Ga916  Ga  0.078301  0.419127  0.500000
Ga917  Ga  0.078301  0.419127  0.545455
Ga918  Ga  0.078301  0.419127  0.590909
Ga919  Ga  0.078301  0.419127  0.636364
Ga920  Ga  0.078301  0.419127  0.681818
Ga921  Ga  0.078301  0.419127  0.727273
Ga922  Ga  0.078301  0.419127  0.772727
Ga923  Ga  0.078301  0.419127  0.818182
Ga924  Ga  0.078301  0.419127  0.863636
Ga925  Ga  0.078301  0.419127  0.909091
Ga926  Ga  0.078301  0.576300  0.000000
Ga927  Ga  0.078301  0.576300  0.954545
Ga928  Ga  0.078301  0.576300  0.045455
Ga929  Ga  0.078301  0.576300  0.090909
Ga930  Ga  0.078301  0.576300  0.136364
Ga931  Ga  0.078301  0.576300  0.181818
Ga932  Ga  0.078301  0.576300  0.227273
Ga933  Ga  0.078301  0.576300  0.272727
Ga934  Ga  0.078301  0.576300  0.318182
Ga935  Ga  0.078301  0.576300  0.363636
Ga936  Ga  0.078301  0.576300  0.409091
Ga937  Ga  0.078301  0.576300  0.454545
Ga938  Ga  0.078301  0.576300  0.500000
Ga939  Ga  0.078301  0.576300  0.545455
Ga940  Ga  0.078301  0.576300  0.590909
Ga941  Ga  0.078301  0.576300  0.636364
Ga942  Ga  0.078301  0.576300  0.681818
Ga943  Ga  0.078301  0.576300  0.727273
Ga944  Ga  0.078301  0.576300  0.772727
Ga945  Ga  0.078301  0.576300  0.818182
Ga946  Ga  0.078301  0.576300  0.863636
Ga947  Ga  0.078301  0.576300  0.909091
Ga948  Ga  0.078301  0.733472  0.000000
Ga949  Ga  0.078301  0.733472  0.954545
Ga950  Ga  0.078301  0.733472  0.045455
Ga951  Ga  0.078301  0.733472  0.090909
Ga952  Ga  0.078301  0.733472  0.136364
Ga953  Ga  0.078301  0.733472  0.181818
Ga954  Ga  0.078301  0.733472  0.227273
Ga955  Ga  0.078301  0.733472  0.272727
Ga956  Ga  0.078301  0.733472  0.318182
Ga957  Ga  0.078301  0.733472  0.363636
Ga958  Ga  0.078301  0.733472  0.409091
Ga959  Ga  0.078301  0.733472  0.454545
Ga960  Ga  0.078301  0.733472  0.500000
Ga961  Ga  0.078301  0.733472  0.545455
Ga962  Ga  0.078301  0.733472  0.590909
Ga963  Ga  0.078301  0.733472  0.636364
Ga964  Ga  0.078301  0.733472  0.681818
Ga965  Ga  0.078301  0.733472  0.727273
Ga966  Ga  0.078301  0.733472  0.772727
Ga967  Ga  0.078301  0.733472  0.818182
Ga968  Ga  0.078301  0.733472  0.863636
Ga969  Ga  0.078301  0.733472  0.909091
Ga970  Ga  0.078301  0.890645  0.000000
Ga971  Ga  0.078301  0.890645  0.954545
Ga972  Ga  0.078301  0.890645  0.045455
Ga973  Ga  0.078301  0.890645  0.090909
Ga974  Ga  0.078301  0.890645  0.136364
Ga975  Ga  0.078301  0.890645  0.181818
Ga976  Ga  0.078301  0.890645  0.227273
Ga977  Ga  0.078301  0.890645  0.272727
Ga978  Ga  0.078301  0.890645  0.318182
Ga979  Ga  0.078301  0.890645  0.363636
Ga980  Ga  0.078301  0.890645  0.409091
Ga981  Ga  0.078301  0.890645  0.454545
Ga982  Ga  0.078301  0.890645  0.500000
Ga983  Ga  0.078301  0.890645  0.545455
Ga984  Ga  0.078301  0.890645  0.590909
Ga985  Ga  0.078301  0.890645  0.636364
Ga986  Ga  0.078301  0.890645  0.681818
Ga987  Ga  0.078301  0.890645  0.727273
Ga988  Ga  0.078301  0.890645  0.772727
Ga989  Ga  0.078301  0.890645  0.818182
Ga990  Ga  0.078301  0.890645  0.863636
Ga991  Ga  0.078301  0.890645  0.909091
Ga992  Ga  0.078301  1.047817  0.000000
Ga993  Ga  0.078301  1.047817  0.954545
Ga994  Ga  0.078301  1.047817  0.045455
Ga995  Ga  0.078301  1.047817  0.090909
Ga996  Ga  0.078301  1.047817  0.136364
Ga997  Ga  0.078301  1.047817  0.181818
Ga998  Ga  0.078301  1.047817  0.227273
Ga999  Ga  0.078301  1.047817  0.272727
Ga1000  Ga  0.078301  1.047817  0.318182
Ga1001  Ga  0.078301  1.047817  0.363636
Ga1002  Ga  0.078301  1.047817  0.409091
Ga1003  Ga  0.078301  1.047817  0.454545
Ga1004  Ga  0.078301  1.047817  0.500000
Ga1005  Ga  0.078301  1.047817  0.545455
Ga1006  Ga  0.078301  1.047817  0.590909
Ga1007  Ga  0.078301  1.047817  0.636364
Ga1008  Ga  0.078301  1.047817  0.681818
Ga1009  Ga  0.078301  1.047817  0.727273
Ga1010  Ga  0.078301  1.047817  0.772727
Ga1011  Ga  0.078301  1.047817  0.818182
Ga1012  Ga  0.078301  1.047817  0.863636
Ga1013  Ga  0.078301  1.047817  0.909091
Ga1014  Ga  0.078301  1.204990  0.000000
Ga1015  Ga  0.078301  1.204990  0.954545
Ga1016  Ga  0.078301  1.204990  0.045455
Ga1017  Ga  0.078301  1.204990  0.090909
Ga1018  Ga  0.078301  1.204990  0.136364
Ga1019  Ga  0.078301  1.204990  0.181818
Ga1020  Ga  0.078301  1.204990  0.227273
Ga1021  Ga  0.078301  1.204990  0.272727
Ga1022  Ga  0.078301  1.204990  0.318182
Ga1023  Ga  0.078301  1.204990  0.363636
Ga1024  Ga  0.078301  1.204990  0.409091
Ga1025  Ga  0.078301  1.204990  0.454545
Ga1026  Ga  0.078301  1.204990  0.500000
Ga1027  Ga  0.078301  1.204990  0.545455
Ga1028  Ga  0.078301  1.204990  0.590909
Ga1029  Ga  0.078301  1.204990  0.636364
Ga1030  Ga  0.078301  1.204990  0.681818
Ga1031  Ga  0.078301  1.204990  0.727273
Ga1032  Ga  0.078301  1.204990  0.772727
Ga1033  Ga  0.078301  1.204990  0.818182
Ga1034  Ga  0.078301  1.204990  0.863636
Ga1035  Ga  0.078301  1.204990  0.909091
Ga1036  Ga  0.234902  0.576300  0.000000
Ga1037  Ga  0.234902  0.576300  0.954545
Ga1038  Ga  0.234902  0.576300  0.045455
Ga1039  Ga  0.234902  0.576300  0.090909
Ga1040  Ga  0.234902  0.576300  0.136364
Ga1041  Ga  0.234902  0.576300  0.181818
Ga1042  Ga  0.234902  0.576300  0.227273
Ga1043  Ga  0.234902  0.576300  0.272727
Ga1044  Ga  0.234902  0.576300  0.318182
Ga1045  Ga  0.234902  0.576300  0.363636
Ga1046  Ga  0.234902  0.576300  0.409091
Ga1047  Ga  0.234902  0.576300  0.454545
Ga1048  Ga  0.234902  0.576300  0.500000
Ga1049  Ga  0.234902  0.576300  0.545455
Ga1050  Ga  0.234902  0.576300  0.590909
Ga1051  Ga  0.234902  0.576300  0.636364
Ga1052  Ga  0.234902  0.576300  0.681818
Ga1053  Ga  0.234902  0.576300  0.727273
Ga1054  Ga  0.234902  0.576300  0.772727
Ga1055  Ga  0.234902  0.576300  0.818182
Ga1056  Ga  0.234902  0.576300  0.863636
Ga1057  Ga  0.234902  0.576300  0.909091
Ga1058  Ga  0.234902  0.733472  0.000000
Ga1059  Ga  0.234902  0.733472  0.954545
Ga1060  Ga  0.234902  0.733472  0.045455
Ga1061  Ga  0.234902  0.733472  0.090909
Ga1062  Ga  0.234902  0.733472  0.136364
Ga1063  Ga  0.234902  0.733472  0.181818
Ga1064  Ga  0.234902  0.733472  0.227273
Ga1065  Ga  0.234902  0.733472  0.272727
Ga1066  Ga  0.234902  0.733472  0.318182
Ga1067  Ga  0.234902  0.733472  0.363636
Ga1068  Ga  0.234902  0.733472  0.409091
Ga1069  Ga  0.234902  0.733472  0.454545
Ga1070  Ga  0.234902  0.733472  0.500000
Ga1071  Ga  0.234902  0.733472  0.545455
Ga1072  Ga  0.234902  0.733472  0.590909
Ga1073  Ga  0.234902  0.733472  0.636364
Ga1074  Ga  0.234902  0.733472  0.681818
Ga1075  Ga  0.234902  0.733472  0.727273
Ga1076  Ga  0.234902  0.733472  0.772727
Ga1077  Ga  0.234902  0.733472  0.818182
Ga1078  Ga  0.234902  0.733472  0.863636
Ga1079  Ga  0.234902  0.733472  0.909091
Ga1080  Ga  0.234902  0.890645  0.000000
Ga1081  Ga  0.234902  0.890645  0.954545
Ga1082  Ga  0.234902  0.890645  0.045455
Ga1083  Ga  0.234902  0.890645  0.090909
Ga1084  Ga  0.234902  0.890645  0.136364
Ga1085  Ga  0.234902  0.890645  0.181818
Ga1086  Ga  0.234902  0.890645  0.227273
Ga1087  Ga  0.234902  0.890645  0.272727
Ga1088  Ga  0.234902  0.890645  0.318182
Ga1089  Ga  0.234902  0.890645  0.363636
Ga1090  Ga  0.234902  0.890645  0.409091
Ga1091  Ga  0.234902  0.890645  0.454545
Ga1092  Ga  0.234902  0.890645  0.500000
Ga1093  Ga  0.234902  0.890645  0.545455
Ga1094  Ga  0.234902  0.890645  0.590909
Ga1095  Ga  0.234902  0.890645  0.636364
Ga1096  Ga  0.234902  0.890645  0.681818
Ga1097  Ga  0.234902  0.890645  0.727273
Ga1098  Ga  0.234902  0.890645  0.772727
Ga1099  Ga  0.234902  0.890645  0.818182
Ga1100  Ga  0.234902  0.890645  0.863636
Ga1101  Ga  0.234902  0.890645  0.909091
Ga1102  Ga  0.234902  1.047817  0.000000
Ga1103  Ga  0.234902  1.047817  0.954545
Ga1104  Ga  0.234902  1.047817  0.045455
Ga1105  Ga  0.234902  1.047817  0.090909
Ga1106  Ga  0.234902  1.047817  0.136364
Ga1107  Ga  0.234902  1.047817  0.181818
Ga1108  Ga  0.234902  1.047817  0.227273
Ga1109  Ga  0.234902  1.047817  0.272727
Ga1110  Ga  0.234902  1.047817  0.318182
Ga1111  Ga  0.234902  1.047817  0.363636
Ga1112  Ga  0.234902  1.047817  0.409091
Ga1113  Ga  0.234902  1.047817  0.454545
Ga1114  Ga  0.234902  1.047817  0.500000
Ga1115  Ga  0.234902  1.047817  0.545455
Ga1116  Ga  0.234902  1.047817  0.590909
Ga1117  Ga  0.234902  1.047817  0.636364
Ga1118  Ga  0.234902  1.047817  0.681818
Ga1119  Ga  0.234902  1.047817  0.727273
Ga1120  Ga  0.234902  1.047817  0.772727
Ga1121  Ga  0.234902  1.047817  0.818182
Ga1122  Ga  0.234902  1.047817  0.863636
Ga1123  Ga  0.234902  1.047817  0.909091
Ga1124  Ga  0.391503  0.576300  0.000000
Ga1125  Ga  0.391503  0.576300  0.954545
Ga1126  Ga  0.391503  0.576300  0.045455
Ga1127  Ga  0.391503  0.576300  0.090909
Ga1128  Ga  0.391503  0.576300  0.136364
Ga1129  Ga  0.391503  0.576300  0.181818
Ga1130  Ga  0.391503  0.576300  0.227273
Ga1131  Ga  0.391503  0.576300  0.272727
Ga1132  Ga  0.391503  0.576300  0.318182
Ga1133  Ga  0.391503  0.576300  0.363636
Ga1134  Ga  0.391503  0.576300  0.409091
Ga1135  Ga  0.391503  0.576300  0.454545
Ga1136  Ga  0.391503  0.576300  0.500000
Ga1137  Ga  0.391503  0.576300  0.545455
Ga1138  Ga  0.391503  0.576300  0.590909
Ga1139  Ga  0.391503  0.576300  0.636364
Ga1140  Ga  0.391503  0.576300  0.681818
Ga1141  Ga  0.391503  0.576300  0.727273
Ga1142  Ga  0.391503  0.576300  0.772727
Ga1143  Ga  0.391503  0.576300  0.818182
Ga1144  Ga  0.391503  0.576300  0.863636
Ga1145  Ga  0.391503  0.576300  0.909091
Ga1146  Ga  0.391503  0.733472  0.000000
Ga1147  Ga  0.391503  0.733472  0.954545
Ga1148  Ga  0.391503  0.733472  0.045455
Ga1149  Ga  0.391503  0.733472  0.090909
Ga1150  Ga  0.391503  0.733472  0.136364
Ga1151  Ga  0.391503  0.733472  0.181818
Ga1152  Ga  0.391503  0.733472  0.227273
Ga1153  Ga  0.391503  0.733472  0.272727
Ga1154  Ga  0.391503  0.733472  0.318182
Ga1155  Ga  0.391503  0.733472  0.363636
Ga1156  Ga  0.391503  0.733472  0.409091
Ga1157  Ga  0.391503  0.733472  0.454545
Ga1158  Ga  0.391503  0.733472  0.500000
Ga1159  Ga  0.391503  0.733472  0.545455
Ga1160  Ga  0.391503  0.733472  0.590909
Ga1161  Ga  0.391503  0.733472  0.636364
Ga1162  Ga  0.391503  0.733472  0.681818
Ga1163  Ga  0.391503  0.733472  0.727273
Ga1164  Ga  0.391503  0.733472  0.772727
Ga1165  Ga  0.391503  0.733472  0.818182
Ga1166  Ga  0.391503  0.733472  0.863636
Ga1167  Ga  0.391503  0.733472  0.909091
Ga1168  Ga  0.391503  0.890645  0.000000
Ga1169  Ga  0.391503  0.890645  0.954545
Ga1170  Ga  0.391503  0.890645  0.045455
Ga1171  Ga  0.391503  0.890645  0.090909
Ga1172  Ga  0.391503  0.890645  0.136364
Ga1173  Ga  0.391503  0.890645  0.181818
Ga1174  Ga  0.391503  0.890645  0.227273
Ga1175  Ga  0.391503  0.890645  0.272727
Ga1176  Ga  0.391503  0.890645  0.318182
Ga1177  Ga  0.391503  0.890645  0.363636
Ga1178  Ga  0.391503  0.890645  0.409091
Ga1179  Ga  0.391503  0.890645  0.454545
Ga1180  Ga  0.391503  0.890645  0.500000
Ga1181  Ga  0.391503  0.890645  0.545455
Ga1182  Ga  0.391503  0.890645  0.590909
Ga1183  Ga  0.391503  0.890645  0.636364
Ga1184  Ga  0.391503  0.890645  0.681818
Ga1185  Ga  0.391503  0.890645  0.727273
Ga1186  Ga  0.391503  0.890645  0.772727
Ga1187  Ga  0.391503  0.890645  0.818182
Ga1188  Ga  0.391503  0.890645  0.863636
Ga1189  Ga  0.391503  0.890645  0.909091
Ga1190  Ga  0.391503  1.047817  0.000000
Ga1191  Ga  0.391503  1.047817  0.954545
Ga1192  Ga  0.391503  1.047817  0.045455
Ga1193  Ga  0.391503  1.047817  0.090909
Ga1194  Ga  0.391503  1.047817  0.136364
Ga1195  Ga  0.391503  1.047817  0.181818
Ga1196  Ga  0.391503  1.047817  0.227273
Ga1197  Ga  0.391503  1.047817  0.272727
Ga1198  Ga  0.391503  1.047817  0.318182
Ga1199  Ga  0.391503  1.047817  0.363636
Ga1200  Ga  0.391503  1.047817  0.409091
Ga1201  Ga  0.391503  1.047817  0.454545
Ga1202  Ga  0.391503  1.047817  0.500000
Ga1203  Ga  0.391503  1.047817  0.545455
Ga1204  Ga  0.391503  1.047817  0.590909
Ga1205  Ga  0.391503  1.047817  0.636364
Ga1206  Ga  0.391503  1.047817  0.681818
Ga1207  Ga  0.391503  1.047817  0.727273
Ga1208  Ga  0.391503  1.047817  0.772727
Ga1209  Ga  0.391503  1.047817  0.818182
Ga1210  Ga  0.391503  1.047817  0.863636
Ga1211  Ga  0.391503  1.047817  0.909091
Ga1212  Ga  0.548104  0.733472  0.000000
Ga1213  Ga  0.548104  0.733472  0.954545
Ga1214  Ga  0.548104  0.733472  0.045455
Ga1215  Ga  0.548104  0.733472  0.090909
Ga1216  Ga  0.548104  0.733472  0.136364
Ga1217  Ga  0.548104  0.733472  0.181818
Ga1218  Ga  0.548104  0.733472  0.227273
Ga1219  Ga  0.548104  0.733472  0.272727
Ga1220  Ga  0.548104  0.733472  0.318182
Ga1221  Ga  0.548104  0.733472  0.363636
Ga1222  Ga  0.548104  0.733472  0.409091
Ga1223  Ga  0.548104  0.733472  0.454545
Ga1224  Ga  0.548104  0.733472  0.500000
Ga1225  Ga  0.548104  0.733472  0.545455
Ga1226  Ga  0.548104  0.733472  0.590909
Ga1227  Ga  0.548104  0.733472  0.636364
Ga1228  Ga  0.548104  0.733472  0.681818
Ga1229  Ga  0.548104  0.733472  0.727273
Ga1230  Ga  0.548104  0.733472  0.772727
Ga1231  Ga  0.548104  0.733472  0.818182
Ga1232  Ga  0.548104  0.733472  0.863636
Ga1233  Ga  0.548104  0.733472  0.909091
Ga1234  Ga  0.548104  0.890645  0.000000
Ga1235  Ga  0.548104  0.890645  0.954545
Ga1236  Ga  0.548104  0.890645  0.045455
Ga1237  Ga  0.548104  0.890645  0.090909
Ga1238  Ga  0.548104  0.890645  0.136364
Ga1239  Ga  0.548104  0.890645  0.181818
Ga1240  Ga  0.548104  0.890645  0.227273
Ga1241  Ga  0.548104  0.890645  0.272727
Ga1242  Ga  0.548104  0.890645  0.318182
Ga1243  Ga  0.548104  0.890645  0.363636
Ga1244  Ga  0.548104  0.890645  0.409091
Ga1245  Ga  0.548104  0.890645  0.454545
Ga1246  Ga  0.548104  0.890645  0.500000
Ga1247  Ga  0.548104  0.890645  0.545455
Ga1248  Ga  0.548104  0.890645  0.590909
Ga1249  Ga  0.548104  0.890645  0.636364
Ga1250  Ga  0.548104  0.890645  0.681818
Ga1251  Ga  0.548104  0.890645  0.727273
Ga1252  Ga  0.548104  0.890645  0.772727
Ga1253  Ga  0.548104  0.890645  0.818182
Ga1254  Ga  0.548104  0.890645  0.863636
Ga1255  Ga  0.548104  0.890645  0.909091
Ga1256  Ga  0.704705  0.733472  0.000000
Ga1257  Ga  0.704705  0.733472  0.954545
Ga1258  Ga  0.704705  0.733472  0.045455
Ga1259  Ga  0.704705  0.733472  0.090909
Ga1260  Ga  0.704705  0.733472  0.136364
Ga1261  Ga  0.704705  0.733472  0.181818
Ga1262  Ga  0.704705  0.733472  0.227273
Ga1263  Ga  0.704705  0.733472  0.272727
Ga1264  Ga  0.704705  0.733472  0.318182
Ga1265  Ga  0.704705  0.733472  0.363636
Ga1266  Ga  0.704705  0.733472  0.409091
Ga1267  Ga  0.704705  0.733472  0.454545
Ga1268  Ga  0.704705  0.733472  0.500000
Ga1269  Ga  0.704705  0.733472  0.545455
Ga1270  Ga  0.704705  0.733472  0.590909
Ga1271  Ga  0.704705  0.733472  0.636364
Ga1272  Ga  0.704705  0.733472  0.681818
Ga1273  Ga  0.704705  0.733472  0.727273
Ga1274  Ga  0.704705  0.733472  0.772727
Ga1275  Ga  0.704705  0.733472  0.818182
Ga1276  Ga  0.704705  0.733472  0.863636
Ga1277  Ga  0.704705  0.733472  0.909091
Ga1278  Ga  0.704705  0.890645  0.000000
Ga1279  Ga  0.704705  0.890645  0.954545
Ga1280  Ga  0.704705  0.890645  0.045455
Ga1281  Ga  0.704705  0.890645  0.090909
Ga1282  Ga  0.704705  0.890645  0.136364
Ga1283  Ga  0.704705  0.890645  0.181818
Ga1284  Ga  0.704705  0.890645  0.227273
Ga1285  Ga  0.704705  0.890645  0.272727
Ga1286  Ga  0.704705  0.890645  0.318182
Ga1287  Ga  0.704705  0.890645  0.363636
Ga1288  Ga  0.704705  0.890645  0.409091
Ga1289  Ga  0.704705  0.890645  0.454545
Ga1290  Ga  0.704705  0.890645  0.500000
Ga1291  Ga  0.704705  0.890645  0.545455
Ga1292  Ga  0.704705  0.890645  0.590909
Ga1293  Ga  0.704705  0.890645  0.636364
Ga1294  Ga  0.704705  0.890645  0.681818
Ga1295  Ga  0.704705  0.890645  0.727273
Ga1296  Ga  0.704705  0.890645  0.772727
Ga1297  Ga  0.704705  0.890645  0.818182
Ga1298  Ga  0.704705  0.890645  0.863636
Ga1299  Ga  0.704705  0.890645  0.909091
Ga1300  Ga  0.078301  0.497713  0.022727
Ga1301  Ga  0.078301  0.497713  0.068182
Ga1302  Ga  0.078301  0.497713  0.113636
Ga1303  Ga  0.078301  0.497713  0.159091
Ga1304  Ga  0.078301  0.497713  0.204545
Ga1305  Ga  0.078301  0.497713  0.250000
Ga1306  Ga  0.078301  0.497713  0.295455
Ga1307  Ga  0.078301  0.497713  0.340909
Ga1308  Ga  0.078301  0.497713  0.386364
Ga1309  Ga  0.078301  0.497713  0.431818
Ga1310  Ga  0.078301  0.497713  0.477273
Ga1311  Ga  0.078301  0.497713  0.522727
Ga1312  Ga  0.078301  0.497713  0.568182
Ga1313  Ga  0.078301  0.497713  0.613636
Ga1314  Ga  0.078301  0.497713  0.659091
Ga1315  Ga  0.078301  0.497713  0.704545
Ga1316  Ga  0.078301  0.497713  0.750000
Ga1317  Ga  0.078301  0.497713  0.795455
Ga1318  Ga  0.078301  0.497713  0.840909
Ga1319  Ga  0.078301  0.497713  0.886364
Ga1320  Ga  0.078301  0.497713  0.931818
Ga1321  Ga  0.078301  0.654886  0.022727
Ga1322  Ga  0.078301  0.654886  0.068182
Ga1323  Ga  0.078301  0.654886  0.113636
Ga1324  Ga  0.078301  0.654886  0.159091
Ga1325  Ga  0.078301  0.654886  0.204545
Ga1326  Ga  0.078301  0.654886  0.250000
Ga1327  Ga  0.078301  0.654886  0.295455
Ga1328  Ga  0.078301  0.654886  0.340909
Ga1329  Ga  0.078301  0.654886  0.386364
Ga1330  Ga  0.078301  0.654886  0.431818
Ga1331  Ga  0.078301  0.654886  0.477273
Ga1332  Ga  0.078301  0.654886  0.522727
Ga1333  Ga  0.078301  0.654886  0.568182
Ga1334  Ga  0.078301  0.654886  0.613636
Ga1335  Ga  0.078301  0.654886  0.659091
Ga1336  Ga  0.078301  0.654886  0.704545
Ga1337  Ga  0.078301  0.654886  0.750000
Ga1338  Ga  0.078301  0.654886  0.795455
Ga1339  Ga  0.078301  0.654886  0.840909
Ga1340  Ga  0.078301  0.654886  0.886364
Ga1341  Ga  0.078301  0.654886  0.931818
Ga1342  Ga  0.078301  0.812058  0.022727
Ga1343  Ga  0.078301  0.812058  0.068182
Ga1344  Ga  0.078301  0.812058  0.113636
Ga1345  Ga  0.078301  0.812058  0.159091
Ga1346  Ga  0.078301  0.812058  0.204545
Ga1347  Ga  0.078301  0.812058  0.250000
Ga1348  Ga  0.078301  0.812058  0.295455
Ga1349  Ga  0.078301  0.812058  0.340909
Ga1350  Ga  0.078301  0.812058  0.386364
Ga1351  Ga  0.078301  0.812058  0.431818
Ga1352  Ga  0.078301  0.812058  0.477273
Ga1353  Ga  0.078301  0.812058  0.522727
Ga1354  Ga  0.078301  0.812058  0.568182
Ga1355  Ga  0.078301  0.812058  0.613636
Ga1356  Ga  0.078301  0.812058  0.659091
Ga1357  Ga  0.078301  0.812058  0.704545
Ga1358  Ga  0.078301  0.812058  0.750000
Ga1359  Ga  0.078301  0.812058  0.795455
Ga1360  Ga  0.078301  0.812058  0.840909
Ga1361  Ga  0.078301  0.812058  0.886364
Ga1362  Ga  0.078301  0.812058  0.931818
Ga1363  Ga  0.078301  0.969231  0.022727
Ga1364  Ga  0.078301  0.969231  0.068182
Ga1365  Ga  0.078301  0.969231  0.113636
Ga1366  Ga  0.078301  0.969231  0.159091
Ga1367  Ga  0.078301  0.969231  0.204545
Ga1368  Ga  0.078301  0.969231  0.250000
Ga1369  Ga  0.078301  0.969231  0.295455
Ga1370  Ga  0.078301  0.969231  0.340909
Ga1371  Ga  0.078301  0.969231  0.386364
Ga1372  Ga  0.078301  0.969231  0.431818
Ga1373  Ga  0.078301  0.969231  0.477273
Ga1374  Ga  0.078301  0.969231  0.522727
Ga1375  Ga  0.078301  0.969231  0.568182
Ga1376  Ga  0.078301  0.969231  0.613636
Ga1377  Ga  0.078301  0.969231  0.659091
Ga1378  Ga  0.078301  0.969231  0.704545
Ga1379  Ga  0.078301  0.969231  0.750000
Ga1380  Ga  0.078301  0.969231  0.795455
Ga1381  Ga  0.078301  0.969231  0.840909
Ga1382  Ga  0.078301  0.969231  0.886364
Ga1383  Ga  0.078301  0.969231  0.931818
Ga1384  Ga  0.078301  1.126404  0.022727
Ga1385  Ga  0.078301  1.126404  0.068182
Ga1386  Ga  0.078301  1.126404  0.113636
Ga1387  Ga  0.078301  1.126404  0.159091
Ga1388  Ga  0.078301  1.126404  0.204545
Ga1389  Ga  0.078301  1.126404  0.250000
Ga1390  Ga  0.078301  1.126404  0.295455
Ga1391  Ga  0.078301  1.126404  0.340909
Ga1392  Ga  0.078301  1.126404  0.386364
Ga1393  Ga  0.078301  1.126404  0.431818
Ga1394  Ga  0.078301  1.126404  0.477273
Ga1395  Ga  0.078301  1.126404  0.522727
Ga1396  Ga  0.078301  1.126404  0.568182
Ga1397  Ga  0.078301  1.126404  0.613636
Ga1398  Ga  0.078301  1.126404  0.659091
Ga1399  Ga  0.078301  1.126404  0.704545
Ga1400  Ga  0.078301  1.126404  0.750000
Ga1401  Ga  0.078301  1.126404  0.795455
Ga1402  Ga  0.078301  1.126404  0.840909
Ga1403  Ga  0.078301  1.126404  0.886364
Ga1404  Ga  0.078301  1.126404  0.931818
Ga1405  Ga  0.234902  0.497713  0.022727
Ga1406  Ga  0.234902  0.497713  0.068182
Ga1407  Ga  0.234902  0.497713  0.113636
Ga1408  Ga  0.234902  0.497713  0.159091
Ga1409  Ga  0.234902  0.497713  0.204545
Ga1410  Ga  0.234902  0.497713  0.250000
Ga1411  Ga  0.234902  0.497713  0.295455
Ga1412  Ga  0.234902  0.497713  0.340909
Ga1413  Ga  0.234902  0.497713  0.386364
Ga1414  Ga  0.234902  0.497713  0.431818
Ga1415  Ga  0.234902  0.497713  0.477273
Ga1416  Ga  0.234902  0.497713  0.522727
Ga1417  Ga  0.234902  0.497713  0.568182
Ga1418  Ga  0.234902  0.497713  0.613636
Ga1419  Ga  0.234902  0.497713  0.659091
Ga1420  Ga  0.234902  0.497713  0.704545
Ga1421  Ga  0.234902  0.497713  0.750000
Ga1422  Ga  0.234902  0.497713  0.795455
Ga1423  Ga  0.234902  0.497713  0.840909
Ga1424  Ga  0.234902  0.497713  0.886364
Ga1425  Ga  0.234902  0.497713  0.931818
Ga1426  Ga  0.234902  0.654886  0.022727
Ga1427  Ga  0.234902  0.654886  0.068182
Ga1428  Ga  0.234902  0.654886  0.113636
Ga1429  Ga  0.234902  0.654886  0.159091
Ga1430  Ga  0.234902  0.654886  0.204545
Ga1431  Ga  0.234902  0.654886  0.250000
Ga1432  Ga  0.234902  0.654886  0.295455
Ga1433  Ga  0.234902  0.654886  0.340909
Ga1434  Ga  0.234902  0.654886  0.386364
Ga1435  Ga  0.234902  0.654886  0.431818
Ga1436  Ga  0.234902  0.654886  0.477273
Ga1437  Ga  0.234902  0.654886  0.522727
Ga1438  Ga  0.234902  0.654886  0.568182
Ga1439  Ga  0.234902  0.654886  0.613636
Ga1440  Ga  0.234902  0.654886  0.659091
Ga1441  Ga  0.234902  0.654886  0.704545
Ga1442  Ga  0.234902  0.654886  0.750000
Ga1443  Ga  0.234902  0.654886  0.795455
Ga1444  Ga  0.234902  0.654886  0.840909
Ga1445  Ga  0.234902  0.654886  0.886364
Ga1446  Ga  0.234902  0.654886  0.931818
Ga1447  Ga  0.234902  0.812058  0.022727
Ga1448  Ga  0.234902  0.812058  0.068182
Ga1449  Ga  0.234902  0.812058  0.113636
Ga1450  Ga  0.234902  0.812058  0.159091
Ga1451  Ga  0.234902  0.812058  0.204545
Ga1452  Ga  0.234902  0.812058  0.250000
Ga1453  Ga  0.234902  0.812058  0.295455
Ga1454  Ga  0.234902  0.812058  0.340909
Ga1455  Ga  0.234902  0.812058  0.386364
Ga1456  Ga  0.234902  0.812058  0.431818
Ga1457  Ga  0.234902  0.812058  0.477273
Ga1458  Ga  0.234902  0.812058  0.522727
Ga1459  Ga  0.234902  0.812058  0.568182
Ga1460  Ga  0.234902  0.812058  0.613636
Ga1461  Ga  0.234902  0.812058  0.659091
Ga1462  Ga  0.234902  0.812058  0.704545
Ga1463  Ga  0.234902  0.812058  0.750000
Ga1464  Ga  0.234902  0.812058  0.795455
Ga1465  Ga  0.234902  0.812058  0.840909
Ga1466  Ga  0.234902  0.812058  0.886364
Ga1467  Ga  0.234902  0.812058  0.931818
Ga1468  Ga  0.234902  0.969231  0.022727
Ga1469  Ga  0.234902  0.969231  0.068182
Ga1470  Ga  0.234902  0.969231  0.113636
Ga1471  Ga  0.234902  0.969231  0.159091
Ga1472  Ga  0.234902  0.969231  0.204545
Ga1473  Ga  0.234902  0.969231  0.250000
Ga1474  Ga  0.234902  0.969231  0.295455
Ga1475  Ga  0.234902  0.969231  0.340909
Ga1476  Ga  0.234902  0.969231  0.386364
Ga1477  Ga  0.234902  0.969231  0.431818
Ga1478  Ga  0.234902  0.969231  0.477273
Ga1479  Ga  0.234902  0.969231  0.522727
Ga1480  Ga  0.234902  0.969231  0.568182
Ga1481  Ga  0.234902  0.969231  0.613636
Ga1482  Ga  0.234902  0.969231  0.659091
Ga1483  Ga  0.234902  0.969231  0.704545
Ga1484  Ga  0.234902  0.969231  0.750000
Ga1485  Ga  0.234902  0.969231  0.795455
Ga1486  Ga  0.234902  0.969231  0.840909
Ga1487  Ga  0.234902  0.969231  0.886364
Ga1488  Ga  0.234902  0.969231  0.931818
Ga1489  Ga  0.234902  1.126404  0.022727
Ga1490  Ga  0.234902  1.126404  0.068182
Ga1491  Ga  0.234902  1.126404  0.113636
Ga1492  Ga  0.234902  1.126404  0.159091
Ga1493  Ga  0.234902  1.126404  0.204545
Ga1494  Ga  0.234902  1.126404  0.250000
Ga1495  Ga  0.234902  1.126404  0.295455
Ga1496  Ga  0.234902  1.126404  0.340909
Ga1497  Ga  0.234902  1.126404  0.386364
Ga1498  Ga  0.234902  1.126404  0.431818
Ga1499  Ga  0.234902  1.126404  0.477273
Ga1500  Ga  0.234902  1.126404  0.522727
Ga1501  Ga  0.234902  1.126404  0.568182
Ga1502  Ga  0.234902  1.126404  0.613636
Ga1503  Ga  0.234902  1.126404  0.659091
Ga1504  Ga  0.234902  1.126404  0.704545
Ga1505  Ga  0.234902  1.126404  0.750000
Ga1506  Ga  0.234902  1.126404  0.795455
Ga1507  Ga  0.234902  1.126404  0.840909
Ga1508  Ga  0.234902  1.126404  0.886364
Ga1509  Ga  0.234902  1.126404  0.931818
Ga1510  Ga  0.391503  0.654886  0.022727
Ga1511  Ga  0.391503  0.654886  0.068182
Ga1512  Ga  0.391503  0.654886  0.113636
Ga1513  Ga  0.391503  0.654886  0.159091
Ga1514  Ga  0.391503  0.654886  0.204545
Ga1515  Ga  0.391503  0.654886  0.250000
Ga1516  Ga  0.391503  0.654886  0.295455
Ga1517  Ga  0.391503  0.654886  0.340909
Ga1518  Ga  0.391503  0.654886  0.386364
Ga1519  Ga  0.391503  0.654886  0.431818
Ga1520  Ga  0.391503  0.654886  0.477273
Ga1521  Ga  0.391503  0.654886  0.522727
Ga1522  Ga  0.391503  0.654886  0.568182
Ga1523  Ga  0.391503  0.654886  0.613636
Ga1524  Ga  0.391503  0.654886  0.659091
Ga1525  Ga  0.391503  0.654886  0.704545
Ga1526  Ga  0.391503  0.654886  0.750000
Ga1527  Ga  0.391503  0.654886  0.795455
Ga1528  Ga  0.391503  0.654886  0.840909
Ga1529  Ga  0.391503  0.654886  0.886364
Ga1530  Ga  0.391503  0.654886  0.931818
Ga1531  Ga  0.391503  0.812058  0.022727
Ga1532  Ga  0.391503  0.812058  0.068182
Ga1533  Ga  0.391503  0.812058  0.113636
Ga1534  Ga  0.391503  0.812058  0.159091
Ga1535  Ga  0.391503  0.812058  0.204545
Ga1536  Ga  0.391503  0.812058  0.250000
Ga1537  Ga  0.391503  0.812058  0.295455
Ga1538  Ga  0.391503  0.812058  0.340909
Ga1539  Ga  0.391503  0.812058  0.386364
Ga1540  Ga  0.391503  0.812058  0.431818
Ga1541  Ga  0.391503  0.812058  0.477273
Ga1542  Ga  0.391503  0.812058  0.522727
Ga1543  Ga  0.391503  0.812058  0.568182
Ga1544  Ga  0.391503  0.812058  0.613636
Ga1545  Ga  0.391503  0.812058  0.659091
Ga1546  Ga  0.391503  0.812058  0.704545
Ga1547  Ga  0.391503  0.812058  0.750000
Ga1548  Ga  0.391503  0.812058  0.795455
Ga1549  Ga  0.391503  0.812058  0.840909
Ga1550  Ga  0.391503  0.812058  0.886364
Ga1551  Ga  0.391503  0.812058  0.931818
Ga1552  Ga  0.391503  0.969231  0.022727
Ga1553  Ga  0.391503  0.969231  0.068182
Ga1554  Ga  0.391503  0.969231  0.113636
Ga1555  Ga  0.391503  0.969231  0.159091
Ga1556  Ga  0.391503  0.969231  0.204545
Ga1557  Ga  0.391503  0.969231  0.250000
Ga1558  Ga  0.391503  0.969231  0.295455
Ga1559  Ga  0.391503  0.969231  0.340909
Ga1560  Ga  0.391503  0.969231  0.386364
Ga1561  Ga  0.391503  0.969231  0.431818
Ga1562  Ga  0.391503  0.969231  0.477273
Ga1563  Ga  0.391503  0.969231  0.522727
Ga1564  Ga  0.391503  0.969231  0.568182
Ga1565  Ga  0.391503  0.969231  0.613636
Ga1566  Ga  0.391503  0.969231  0.659091
Ga1567  Ga  0.391503  0.969231  0.704545
Ga1568  Ga  0.391503  0.969231  0.750000
Ga1569  Ga  0.391503  0.969231  0.795455
Ga1570  Ga  0.391503  0.969231  0.840909
Ga1571  Ga  0.391503  0.969231  0.886364
Ga1572  Ga  0.391503  0.969231  0.931818
Ga1573  Ga  0.548104  0.654886  0.022727
Ga1574  Ga  0.548104  0.654886  0.068182
Ga1575  Ga  0.548104  0.654886  0.113636
Ga1576  Ga  0.548104  0.654886  0.159091
Ga1577  Ga  0.548104  0.654886  0.204545
Ga1578  Ga  0.548104  0.654886  0.250000
Ga1579  Ga  0.548104  0.654886  0.295455
Ga1580  Ga  0.548104  0.654886  0.340909
Ga1581  Ga  0.548104  0.654886  0.386364
Ga1582  Ga  0.548104  0.654886  0.431818
Ga1583  Ga  0.548104  0.654886  0.477273
Ga1584  Ga  0.548104  0.654886  0.522727
Ga1585  Ga  0.548104  0.654886  0.568182
Ga1586  Ga  0.548104  0.654886  0.613636
Ga1587  Ga  0.548104  0.654886  0.659091
Ga1588  Ga  0.548104  0.654886  0.704545
Ga1589  Ga  0.548104  0.654886  0.750000
Ga1590  Ga  0.548104  0.654886  0.795455
Ga1591  Ga  0.548104  0.654886  0.840909
Ga1592  Ga  0.548104  0.654886  0.886364
Ga1593  Ga  0.548104  0.654886  0.931818
Ga1594  Ga  0.548104  0.812058  0.022727
Ga1595  Ga  0.548104  0.812058  0.068182
Ga1596  Ga  0.548104  0.812058  0.113636
Ga1597  Ga  0.548104  0.812058  0.159091
Ga1598  Ga  0.548104  0.812058  0.204545
Ga1599  Ga  0.548104  0.812058  0.250000
Ga1600  Ga  0.548104  0.812058  0.295455
Ga1601  Ga  0.548104  0.812058  0.340909
Ga1602  Ga  0.548104  0.812058  0.386364
Ga1603  Ga  0.548104  0.812058  0.431818
Ga1604  Ga  0.548104  0.812058  0.477273
Ga1605  Ga  0.548104  0.812058  0.522727
Ga1606  Ga  0.548104  0.812058  0.568182
Ga1607  Ga  0.548104  0.812058  0.613636
Ga1608  Ga  0.548104  0.812058  0.659091
Ga1609  Ga  0.548104  0.812058  0.704545
Ga1610  Ga  0.548104  0.812058  0.750000
Ga1611  Ga  0.548104  0.812058  0.795455
Ga1612  Ga  0.548104  0.812058  0.840909
Ga1613  Ga  0.548104  0.812058  0.886364
Ga1614  Ga  0.548104  0.812058  0.931818
Ga1615  Ga  0.548104  0.969231  0.022727
Ga1616  Ga  0.548104  0.969231  0.068182
Ga1617  Ga  0.548104  0.969231  0.113636
Ga1618  Ga  0.548104  0.969231  0.159091
Ga1619  Ga  0.548104  0.969231  0.204545
Ga1620  Ga  0.548104  0.969231  0.250000
Ga1621  Ga  0.548104  0.969231  0.295455
Ga1622  Ga  0.548104  0.969231  0.340909
Ga1623  Ga  0.548104  0.969231  0.386364
Ga1624  Ga  0.548104  0.969231  0.431818
Ga1625  Ga  0.548104  0.969231  0.477273
Ga1626  Ga  0.548104  0.969231  0.522727
Ga1627  Ga  0.548104  0.969231  0.568182
Ga1628  Ga  0.548104  0.969231  0.613636
Ga1629  Ga  0.548104  0.969231  0.659091
Ga1630  Ga  0.548104  0.969231  0.704545
Ga1631  Ga  0.548104  0.969231  0.750000
Ga1632  Ga  0.548104  0.969231  0.795455
Ga1633  Ga  0.548104  0.969231  0.840909
Ga1634  Ga  0.548104  0.969231  0.886364
Ga1635  Ga  0.548104  0.969231  0.931818
Ga1636  Ga  0.704705  0.812058  0.022727
Ga1637  Ga  0.704705  0.812058  0.068182
Ga1638  Ga  0.704705  0.812058  0.113636
Ga1639  Ga  0.704705  0.812058  0.159091
Ga1640  Ga  0.704705  0.812058  0.204545
Ga1641  Ga  0.704705  0.812058  0.250000
Ga1642  Ga  0.704705  0.812058  0.295455
Ga1643  Ga  0.704705  0.812058  0.340909
Ga1644  Ga  0.704705  0.812058  0.386364
Ga1645  Ga  0.704705  0.812058  0.431818
Ga1646  Ga  0.704705  0.812058  0.477273
Ga1647  Ga  0.704705  0.812058  0.522727
Ga1648  Ga  0.704705  0.812058  0.568182
Ga1649  Ga  0.704705  0.812058  0.613636
Ga1650  Ga  0.704705  0.812058  0.659091
Ga1651  Ga  0.704705  0.812058  0.704545
Ga1652  Ga  0.704705  0.812058  0.750000
Ga1653  Ga  0.704705  0.812058  0.795455
Ga1654  Ga  0.704705  0.812058  0.840909
Ga1655  Ga  0.704705  0.812058  0.886364
Ga1656  Ga  0.704705  0.812058  0.931818
Ga1657  Ga  0.861306  0.812058  0.022727
Ga1658  Ga  0.861306  0.812058  0.068182
Ga1659  Ga  0.861306  0.812058  0.113636
Ga1660  Ga  0.861306  0.812058  0.159091
Ga1661  Ga  0.861306  0.812058  0.204545
Ga1662  Ga  0.861306  0.812058  0.250000
Ga1663  Ga  0.861306  0.812058  0.295455
Ga1664  Ga  0.861306  0.812058  0.340909
Ga1665  Ga  0.861306  0.812058  0.386364
Ga1666  Ga  0.861306  0.812058  0.431818
Ga1667  Ga  0.861306  0.812058  0.477273
Ga1668  Ga  0.861306  0.812058  0.522727
Ga1669  Ga  0.861306  0.812058  0.568182
Ga1670  Ga  0.861306  0.812058  0.613636
Ga1671  Ga  0.861306  0.812058  0.659091
Ga1672  Ga  0.861306  0.812058  0.704545
Ga1673  Ga  0.861306  0.812058  0.750000
Ga1674  Ga  0.861306  0.812058  0.795455
Ga1675  Ga  0.861306  0.812058  0.840909
Ga1676  Ga  0.861306  0.812058  0.886364
Ga1677  Ga  0.861306  0.812058  0.931818
N1  N  0.058725  0.366736  0.000000
N2  N  0.058725  0.366736  0.954545
N3  N  0.058725  0.366736  0.045455
N4  N  0.058725  0.366736  0.090909
N5  N  0.058725  0.366736  0.136364
N6  N  0.058725  0.366736  0.181818
N7  N  0.058725  0.366736  0.227273
N8  N  0.058725  0.366736  0.272727
N9  N  0.058725  0.366736  0.318182
N10  N  0.058725  0.366736  0.363636
N11  N  0.058725  0.366736  0.409091
N12  N  0.058725  0.366736  0.454545
N13  N  0.058725  0.366736  0.500000
N14  N  0.058725  0.366736  0.545455
N15  N  0.058725  0.366736  0.590909
N16  N  0.058725  0.366736  0.636364
N17  N  0.058725  0.366736  0.681818
N18  N  0.058725  0.366736  0.727273
N19  N  0.058725  0.366736  0.772727
N20  N  0.058725  0.366736  0.818182
N21  N  0.058725  0.366736  0.863636
N22  N  0.058725  0.366736  0.909091
N23  N  0.058725  0.523909  0.000000
N24  N  0.058725  0.523909  0.954545
N25  N  0.058725  0.523909  0.045455
N26  N  0.058725  0.523909  0.090909
N27  N  0.058725  0.523909  0.136364
N28  N  0.058725  0.523909  0.181818
N29  N  0.058725  0.523909  0.227273
N30  N  0.058725  0.523909  0.272727
N31  N  0.058725  0.523909  0.318182
N32  N  0.058725  0.523909  0.363636
N33  N  0.058725  0.523909  0.409091
N34  N  0.058725  0.523909  0.454545
N35  N  0.058725  0.523909  0.500000
N36  N  0.058725  0.523909  0.545455
N37  N  0.058725  0.523909  0.590909
N38  N  0.058725  0.523909  0.636364
N39  N  0.058725  0.523909  0.681818
N40  N  0.058725  0.523909  0.727273
N41  N  0.058725  0.523909  0.772727
N42  N  0.058725  0.523909  0.818182
N43  N  0.058725  0.523909  0.863636
N44  N  0.058725  0.523909  0.909091
N45  N  0.058725  0.681081  0.000000
N46  N  0.058725  0.681081  0.954545
N47  N  0.058725  0.681081  0.045455
N48  N  0.058725  0.681081  0.090909
N49  N  0.058725  0.681081  0.136364
N50  N  0.058725  0.681081  0.181818
N51  N  0.058725  0.681081  0.227273
N52  N  0.058725  0.681081  0.272727
N53  N  0.058725  0.681081  0.318182
N54  N  0.058725  0.681081  0.363636
N55  N  0.058725  0.681081  0.409091
N56  N  0.058725  0.681081  0.454545
N57  N  0.058725  0.681081  0.500000
N58  N  0.058725  0.681081  0.545455
N59  N  0.058725  0.681081  0.590909
N60  N  0.058725  0.681081  0.636364
N61  N  0.058725  0.681081  0.681818
N62  N  0.058725  0.681081  0.727273
N63  N  0.058725  0.681081  0.772727
N64  N  0.058725  0.681081  0.818182
N65  N  0.058725  0.681081  0.863636
N66  N  0.058725  0.681081  0.909091
N67  N  0.058725  0.838254  0.000000
N68  N  0.058725  0.838254  0.954545
N69  N  0.058725  0.838254  0.045455
N70  N  0.058725  0.838254  0.090909
N71  N  0.058725  0.838254  0.136364
N72  N  0.058725  0.838254  0.181818
N73  N  0.058725  0.838254  0.227273
N74  N  0.058725  0.838254  0.272727
N75  N  0.058725  0.838254  0.318182
N76  N  0.058725  0.838254  0.363636
N77  N  0.058725  0.838254  0.409091
N78  N  0.058725  0.838254  0.454545
N79  N  0.058725  0.838254  0.500000
N80  N  0.058725  0.838254  0.545455
N81  N  0.058725  0.838254  0.590909
N82  N  0.058725  0.838254  0.636364
N83  N  0.058725  0.838254  0.681818
N84  N  0.058725  0.838254  0.727273
N85  N  0.058725  0.838254  0.772727
N86  N  0.058725  0.838254  0.818182
N87  N  0.058725  0.838254  0.863636
N88  N  0.058725  0.838254  0.909091
N89  N  0.058725  0.995426  0.000000
N90  N  0.058725  0.995426  0.954545
N91  N  0.058725  0.995426  0.045455
N92  N  0.058725  0.995426  0.090909
N93  N  0.058725  0.995426  0.136364
N94  N  0.058725  0.995426  0.181818
N95  N  0.058725  0.995426  0.227273
N96  N  0.058725  0.995426  0.272727
N97  N  0.058725  0.995426  0.318182
N98  N  0.058725  0.995426  0.363636
N99  N  0.058725  0.995426  0.409091
N100  N  0.058725  0.995426  0.454545
N101  N  0.058725  0.995426  0.500000
N102  N  0.058725  0.995426  0.545455
N103  N  0.058725  0.995426  0.590909
N104  N  0.058725  0.995426  0.636364
N105  N  0.058725  0.995426  0.681818
N106  N  0.058725  0.995426  0.727273
N107  N  0.058725  0.995426  0.772727
N108  N  0.058725  0.995426  0.818182
N109  N  0.058725  0.995426  0.863636
N110  N  0.058725  0.995426  0.909091
N111  N  0.058725  1.152599  0.000000
N112  N  0.058725  1.152599  0.954545
N113  N  0.058725  1.152599  0.045455
N114  N  0.058725  1.152599  0.090909
N115  N  0.058725  1.152599  0.136364
N116  N  0.058725  1.152599  0.181818
N117  N  0.058725  1.152599  0.227273
N118  N  0.058725  1.152599  0.272727
N119  N  0.058725  1.152599  0.318182
N120  N  0.058725  1.152599  0.363636
N121  N  0.058725  1.152599  0.409091
N122  N  0.058725  1.152599  0.454545
N123  N  0.058725  1.152599  0.500000
N124  N  0.058725  1.152599  0.545455
N125  N  0.058725  1.152599  0.590909
N126  N  0.058725  1.152599  0.636364
N127  N  0.058725  1.152599  0.681818
N128  N  0.058725  1.152599  0.727273
N129  N  0.058725  1.152599  0.772727
N130  N  0.058725  1.152599  0.818182
N131  N  0.058725  1.152599  0.863636
N132  N  0.058725  1.152599  0.909091
N133  N  0.215326  0.523909  0.000000
N134  N  0.215326  0.523909  0.954545
N135  N  0.215326  0.523909  0.045455
N136  N  0.215326  0.523909  0.090909
N137  N  0.215326  0.523909  0.136364
N138  N  0.215326  0.523909  0.181818
N139  N  0.215326  0.523909  0.227273
N140  N  0.215326  0.523909  0.272727
N141  N  0.215326  0.523909  0.318182
N142  N  0.215326  0.523909  0.363636
N143  N  0.215326  0.523909  0.409091
N144  N  0.215326  0.523909  0.454545
N145  N  0.215326  0.523909  0.500000
N146  N  0.215326  0.523909  0.545455
N147  N  0.215326  0.523909  0.590909
N148  N  0.215326  0.523909  0.636364
N149  N  0.215326  0.523909  0.681818
N150  N  0.215326  0.523909  0.727273
N151  N  0.215326  0.523909  0.772727
N152  N  0.215326  0.523909  0.818182
N153  N  0.215326  0.523909  0.863636
N154  N  0.215326  0.523909  0.909091
N155  N  0.215326  0.681081  0.000000
N156  N  0.215326  0.681081  0.954545
N157  N  0.215326  0.681081  0.045455
N158  N  0.215326  0.681081  0.090909
N159  N  0.215326  0.681081  0.136364
N160  N  0.215326  0.681081  0.181818
N161  N  0.215326  0.681081  0.227273
N162  N  0.215326  0.681081  0.272727
N163  N  0.215326  0.681081  0.318182
N164  N  0.215326  0.681081  0.363636
N165  N  0.215326  0.681081  0.409091
N166  N  0.215326  0.681081  0.454545
N167  N  0.215326  0.681081  0.500000
N168  N  0.215326  0.681081  0.545455
N169  N  0.215326  0.681081  0.590909
N170  N  0.215326  0.681081  0.636364
N171  N  0.215326  0.681081  0.681818
N172  N  0.215326  0.681081  0.727273
N173  N  0.215326  0.681081  0.772727
N174  N  0.215326  0.681081  0.818182
N175  N  0.215326  0.681081  0.863636
N176  N  0.215326  0.681081  0.909091
N177  N  0.215326  0.838254  0.000000
N178  N  0.215326  0.838254  0.954545
N179  N  0.215326  0.838254  0.045455
N180  N  0.215326  0.838254  0.090909
N181  N  0.215326  0.838254  0.136364
N182  N  0.215326  0.838254  0.181818
N183  N  0.215326  0.838254  0.227273
N184  N  0.215326  0.838254  0.272727
N185  N  0.215326  0.838254  0.318182
N186  N  0.215326  0.838254  0.363636
N187  N  0.215326  0.838254  0.409091
N188  N  0.215326  0.838254  0.454545
N189  N  0.215326  0.838254  0.500000
N190  N  0.215326  0.838254  0.545455
N191  N  0.215326  0.838254  0.590909
N192  N  0.215326  0.838254  0.636364
N193  N  0.215326  0.838254  0.681818
N194  N  0.215326  0.838254  0.727273
N195  N  0.215326  0.838254  0.772727
N196  N  0.215326  0.838254  0.818182
N197  N  0.215326  0.838254  0.863636
N198  N  0.215326  0.838254  0.909091
N199  N  0.215326  0.995426  0.000000
N200  N  0.215326  0.995426  0.954545
N201  N  0.215326  0.995426  0.045455
N202  N  0.215326  0.995426  0.090909
N203  N  0.215326  0.995426  0.136364
N204  N  0.215326  0.995426  0.181818
N205  N  0.215326  0.995426  0.227273
N206  N  0.215326  0.995426  0.272727
N207  N  0.215326  0.995426  0.318182
N208  N  0.215326  0.995426  0.363636
N209  N  0.215326  0.995426  0.409091
N210  N  0.215326  0.995426  0.454545
N211  N  0.215326  0.995426  0.500000
N212  N  0.215326  0.995426  0.545455
N213  N  0.215326  0.995426  0.590909
N214  N  0.215326  0.995426  0.636364
N215  N  0.215326  0.995426  0.681818
N216  N  0.215326  0.995426  0.727273
N217  N  0.215326  0.995426  0.772727
N218  N  0.215326  0.995426  0.818182
N219  N  0.215326  0.995426  0.863636
N220  N  0.215326  0.995426  0.909091
N221  N  0.215326  1.152599  0.000000
N222  N  0.215326  1.152599  0.954545
N223  N  0.215326  1.152599  0.045455
N224  N  0.215326  1.152599  0.090909
N225  N  0.215326  1.152599  0.136364
N226  N  0.215326  1.152599  0.181818
N227  N  0.215326  1.152599  0.227273
N228  N  0.215326  1.152599  0.272727
N229  N  0.215326  1.152599  0.318182
N230  N  0.215326  1.152599  0.363636
N231  N  0.215326  1.152599  0.409091
N232  N  0.215326  1.152599  0.454545
N233  N  0.215326  1.152599  0.500000
N234  N  0.215326  1.152599  0.545455
N235  N  0.215326  1.152599  0.590909
N236  N  0.215326  1.152599  0.636364
N237  N  0.215326  1.152599  0.681818
N238  N  0.215326  1.152599  0.727273
N239  N  0.215326  1.152599  0.772727
N240  N  0.215326  1.152599  0.818182
N241  N  0.215326  1.152599  0.863636
N242  N  0.215326  1.152599  0.909091
N243  N  0.371927  0.523909  0.000000
N244  N  0.371927  0.523909  0.954545
N245  N  0.371927  0.523909  0.045455
N246  N  0.371927  0.523909  0.090909
N247  N  0.371927  0.523909  0.136364
N248  N  0.371927  0.523909  0.181818
N249  N  0.371927  0.523909  0.227273
N250  N  0.371927  0.523909  0.272727
N251  N  0.371927  0.523909  0.318182
N252  N  0.371927  0.523909  0.363636
N253  N  0.371927  0.523909  0.409091
N254  N  0.371927  0.523909  0.454545
N255  N  0.371927  0.523909  0.500000
N256  N  0.371927  0.523909  0.545455
N257  N  0.371927  0.523909  0.590909
N258  N  0.371927  0.523909  0.636364
N259  N  0.371927  0.523909  0.681818
N260  N  0.371927  0.523909  0.727273
N261  N  0.371927  0.523909  0.772727
N262  N  0.371927  0.523909  0.818182
N263  N  0.371927  0.523909  0.863636
N264  N  0.371927  0.523909  0.909091
N265  N  0.371927  0.681081  0.000000
N266  N  0.371927  0.681081  0.954545
N267  N  0.371927  0.681081  0.045455
N268  N  0.371927  0.681081  0.090909
N269  N  0.371927  0.681081  0.136364
N270  N  0.371927  0.681081  0.181818
N271  N  0.371927  0.681081  0.227273
N272  N  0.371927  0.681081  0.272727
N273  N  0.371927  0.681081  0.318182
N274  N  0.371927  0.681081  0.363636
N275  N  0.371927  0.681081  0.409091
N276  N  0.371927  0.681081  0.454545
N277  N  0.371927  0.681081  0.500000
N278  N  0.371927  0.681081  0.545455
N279  N  0.371927  0.681081  0.590909
N280  N  0.371927  0.681081  0.636364
N281  N  0.371927  0.681081  0.681818
N282  N  0.371927  0.681081  0.727273
N283  N  0.371927  0.681081  0.772727
N284  N  0.371927  0.681081  0.818182
N285  N  0.371927  0.681081  0.863636
N286  N  0.371927  0.681081  0.909091
N287  N  0.371927  0.838254  0.000000
N288  N  0.371927  0.838254  0.954545
N289  N  0.371927  0.838254  0.045455
N290  N  0.371927  0.838254  0.090909
N291  N  0.371927  0.838254  0.136364
N292  N  0.371927  0.838254  0.181818
N293  N  0.371927  0.838254  0.227273
N294  N  0.371927  0.838254  0.272727
N295  N  0.371927  0.838254  0.318182
N296  N  0.371927  0.838254  0.363636
N297  N  0.371927  0.838254  0.409091
N298  N  0.371927  0.838254  0.454545
N299  N  0.371927  0.838254  0.500000
N300  N  0.371927  0.838254  0.545455
N301  N  0.371927  0.838254  0.590909
N302  N  0.371927  0.838254  0.636364
N303  N  0.371927  0.838254  0.681818
N304  N  0.371927  0.838254  0.727273
N305  N  0.371927  0.838254  0.772727
N306  N  0.371927  0.838254  0.818182
N307  N  0.371927  0.838254  0.863636
N308  N  0.371927  0.838254  0.909091
N309  N  0.371927  0.995426  0.000000
N310  N  0.371927  0.995426  0.954545
N311  N  0.371927  0.995426  0.045455
N312  N  0.371927  0.995426  0.090909
N313  N  0.371927  0.995426  0.136364
N314  N  0.371927  0.995426  0.181818
N315  N  0.371927  0.995426  0.227273
N316  N  0.371927  0.995426  0.272727
N317  N  0.371927  0.995426  0.318182
N318  N  0.371927  0.995426  0.363636
N319  N  0.371927  0.995426  0.409091
N320  N  0.371927  0.995426  0.454545
N321  N  0.371927  0.995426  0.500000
N322  N  0.371927  0.995426  0.545455
N323  N  0.371927  0.995426  0.590909
N324  N  0.371927  0.995426  0.636364
N325  N  0.371927  0.995426  0.681818
N326  N  0.371927  0.995426  0.727273
N327  N  0.371927  0.995426  0.772727
N328  N  0.371927  0.995426  0.818182
N329  N  0.371927  0.995426  0.863636
N330  N  0.371927  0.995426  0.909091
N331  N  0.528529  0.681081  0.000000
N332  N  0.528529  0.681081  0.954545
N333  N  0.528529  0.681081  0.045455
N334  N  0.528529  0.681081  0.090909
N335  N  0.528529  0.681081  0.136364
N336  N  0.528529  0.681081  0.181818
N337  N  0.528529  0.681081  0.227273
N338  N  0.528529  0.681081  0.272727
N339  N  0.528529  0.681081  0.318182
N340  N  0.528529  0.681081  0.363636
N341  N  0.528529  0.681081  0.409091
N342  N  0.528529  0.681081  0.454545
N343  N  0.528529  0.681081  0.500000
N344  N  0.528529  0.681081  0.545455
N345  N  0.528529  0.681081  0.590909
N346  N  0.528529  0.681081  0.636364
N347  N  0.528529  0.681081  0.681818
N348  N  0.528529  0.681081  0.727273
N349  N  0.528529  0.681081  0.772727
N350  N  0.528529  0.681081  0.818182
N351  N  0.528529  0.681081  0.863636
N352  N  0.528529  0.681081  0.909091
N353  N  0.528529  0.838254  0.000000
N354  N  0.528529  0.838254  0.954545
N355  N  0.528529  0.838254  0.045455
N356  N  0.528529  0.838254  0.090909
N357  N  0.528529  0.838254  0.136364
N358  N  0.528529  0.838254  0.181818
N359  N  0.528529  0.838254  0.227273
N360  N  0.528529  0.838254  0.272727
N361  N  0.528529  0.838254  0.318182
N362  N  0.528529  0.838254  0.363636
N363  N  0.528529  0.838254  0.409091
N364  N  0.528529  0.838254  0.454545
N365  N  0.528529  0.838254  0.500000
N366  N  0.528529  0.838254  0.545455
N367  N  0.528529  0.838254  0.590909
N368  N  0.528529  0.838254  0.636364
N369  N  0.528529  0.838254  0.681818
N370  N  0.528529  0.838254  0.727273
N371  N  0.528529  0.838254  0.772727
N372  N  0.528529  0.838254  0.818182
N373  N  0.528529  0.838254  0.863636
N374  N  0.528529  0.838254  0.909091
N375  N  0.528529  0.995426  0.000000
N376  N  0.528529  0.995426  0.954545
N377  N  0.528529  0.995426  0.045455
N378  N  0.528529  0.995426  0.090909
N379  N  0.528529  0.995426  0.136364
N380  N  0.528529  0.995426  0.181818
N381  N  0.528529  0.995426  0.227273
N382  N  0.528529  0.995426  0.272727
N383  N  0.528529  0.995426  0.318182
N384  N  0.528529  0.995426  0.363636
N385  N  0.528529  0.995426  0.409091
N386  N  0.528529  0.995426  0.454545
N387  N  0.528529  0.995426  0.500000
N388  N  0.528529  0.995426  0.545455
N389  N  0.528529  0.995426  0.590909
N390  N  0.528529  0.995426  0.636364
N391  N  0.528529  0.995426  0.681818
N392  N  0.528529  0.995426  0.727273
N393  N  0.528529  0.995426  0.772727
N394  N  0.528529  0.995426  0.818182
N395  N  0.528529  0.995426  0.863636
N396  N  0.528529  0.995426  0.909091
N397  N  0.685130  0.681081  0.000000
N398  N  0.685130  0.681081  0.954545
N399  N  0.685130  0.681081  0.045455
N400  N  0.685130  0.681081  0.090909
N401  N  0.685130  0.681081  0.136364
N402  N  0.685130  0.681081  0.181818
N403  N  0.685130  0.681081  0.227273
N404  N  0.685130  0.681081  0.272727
N405  N  0.685130  0.681081  0.318182
N406  N  0.685130  0.681081  0.363636
N407  N  0.685130  0.681081  0.409091
N408  N  0.685130  0.681081  0.454545
N409  N  0.685130  0.681081  0.500000
N410  N  0.685130  0.681081  0.545455
N411  N  0.685130  0.681081  0.590909
N412  N  0.685130  0.681081  0.636364
N413  N  0.685130  0.681081  0.681818
N414  N  0.685130  0.681081  0.727273
N415  N  0.685130  0.681081  0.772727
N416  N  0.685130  0.681081  0.818182
N417  N  0.685130  0.681081  0.863636
N418  N  0.685130  0.681081  0.909091
N419  N  0.685130  0.838254  0.000000
N420  N  0.685130  0.838254  0.954545
N421  N  0.685130  0.838254  0.045455
N422  N  0.685130  0.838254  0.090909
N423  N  0.685130  0.838254  0.136364
N424  N  0.685130  0.838254  0.181818
N425  N  0.685130  0.838254  0.227273
N426  N  0.685130  0.838254  0.272727
N427  N  0.685130  0.838254  0.318182
N428  N  0.685130  0.838254  0.363636
N429  N  0.685130  0.838254  0.409091
N430  N  0.685130  0.838254  0.454545
N431  N  0.685130  0.838254  0.500000
N432  N  0.685130  0.838254  0.545455
N433  N  0.685130  0.838254  0.590909
N434  N  0.685130  0.838254  0.636364
N435  N  0.685130  0.838254  0.681818
N436  N  0.685130  0.838254  0.727273
N437  N  0.685130  0.838254  0.772727
N438  N  0.685130  0.838254  0.818182
N439  N  0.685130  0.838254  0.863636
N440  N  0.685130  0.838254  0.909091
N441  N  0.841731  0.838254  0.000000
N442  N  0.841731  0.838254  0.954545
N443  N  0.841731  0.838254  0.045455
N444  N  0.841731  0.838254  0.090909
N445  N  0.841731  0.838254  0.136364
N446  N  0.841731  0.838254  0.181818
N447  N  0.841731  0.838254  0.227273
N448  N  0.841731  0.838254  0.272727
N449  N  0.841731  0.838254  0.318182
N450  N  0.841731  0.838254  0.363636
N451  N  0.841731  0.838254  0.409091
N452  N  0.841731  0.838254  0.454545
N453  N  0.841731  0.838254  0.500000
N454  N  0.841731  0.838254  0.545455
N455  N  0.841731  0.838254  0.590909
N456  N  0.841731  0.838254  0.636364
N457  N  0.841731  0.838254  0.681818
N458  N  0.841731  0.838254  0.727273
N459  N  0.841731  0.838254  0.772727
N460  N  0.841731  0.838254  0.818182
N461  N  0.841731  0.838254  0.863636
N462  N  0.841731  0.838254  0.909091
N463  N  0.058725  0.445322  0.022727
N464  N  0.058725  0.445322  0.068182
N465  N  0.058725  0.445322  0.113636
N466  N  0.058725  0.445322  0.159091
N467  N  0.058725  0.445322  0.204545
N468  N  0.058725  0.445322  0.250000
N469  N  0.058725  0.445322  0.295455
N470  N  0.058725  0.445322  0.340909
N471  N  0.058725  0.445322  0.386364
N472  N  0.058725  0.445322  0.431818
N473  N  0.058725  0.445322  0.477273
N474  N  0.058725  0.445322  0.522727
N475  N  0.058725  0.445322  0.568182
N476  N  0.058725  0.445322  0.613636
N477  N  0.058725  0.445322  0.659091
N478  N  0.058725  0.445322  0.704545
N479  N  0.058725  0.445322  0.750000
N480  N  0.058725  0.445322  0.795455
N481  N  0.058725  0.445322  0.840909
N482  N  0.058725  0.445322  0.886364
N483  N  0.058725  0.445322  0.931818
N484  N  0.058725  0.602495  0.022727
N485  N  0.058725  0.602495  0.068182
N486  N  0.058725  0.602495  0.113636
N487  N  0.058725  0.602495  0.159091
N488  N  0.058725  0.602495  0.204545
N489  N  0.058725  0.602495  0.250000
N490  N  0.058725  0.602495  0.295455
N491  N  0.058725  0.602495  0.340909
N492  N  0.058725  0.602495  0.386364
N493  N  0.058725  0.602495  0.431818
N494  N  0.058725  0.602495  0.477273
N495  N  0.058725  0.602495  0.522727
N496  N  0.058725  0.602495  0.568182
N497  N  0.058725  0.602495  0.613636
N498  N  0.058725  0.602495  0.659091
N499  N  0.058725  0.602495  0.704545
N500  N  0.058725  0.602495  0.750000
N501  N  0.058725  0.602495  0.795455
N502  N  0.058725  0.602495  0.840909
N503  N  0.058725  0.602495  0.886364
N504  N  0.058725  0.602495  0.931818
N505  N  0.058725  0.759668  0.022727
N506  N  0.058725  0.759668  0.068182
N507  N  0.058725  0.759668  0.113636
N508  N  0.058725  0.759668  0.159091
N509  N  0.058725  0.759668  0.204545
N510  N  0.058725  0.759668  0.250000
N511  N  0.058725  0.759668  0.295455
N512  N  0.058725  0.759668  0.340909
N513  N  0.058725  0.759668  0.386364
N514  N  0.058725  0.759668  0.431818
N515  N  0.058725  0.759668  0.477273
N516  N  0.058725  0.759668  0.522727
N517  N  0.058725  0.759668  0.568182
N518  N  0.058725  0.759668  0.613636
N519  N  0.058725  0.759668  0.659091
N520  N  0.058725  0.759668  0.704545
N521  N  0.058725  0.759668  0.750000
N522  N  0.058725  0.759668  0.795455
N523  N  0.058725  0.759668  0.840909
N524  N  0.058725  0.759668  0.886364
N525  N  0.058725  0.759668  0.931818
N526  N  0.058725  0.916840  0.022727
N527  N  0.058725  0.916840  0.068182
N528  N  0.058725  0.916840  0.113636
N529  N  0.058725  0.916840  0.159091
N530  N  0.058725  0.916840  0.204545
N531  N  0.058725  0.916840  0.250000
N532  N  0.058725  0.916840  0.295455
N533  N  0.058725  0.916840  0.340909
N534  N  0.058725  0.916840  0.386364
N535  N  0.058725  0.916840  0.431818
N536  N  0.058725  0.916840  0.477273
N537  N  0.058725  0.916840  0.522727
N538  N  0.058725  0.916840  0.568182
N539  N  0.058725  0.916840  0.613636
N540  N  0.058725  0.916840  0.659091
N541  N  0.058725  0.916840  0.704545
N542  N  0.058725  0.916840  0.750000
N543  N  0.058725  0.916840  0.795455
N544  N  0.058725  0.916840  0.840909
N545  N  0.058725  0.916840  0.886364
N546  N  0.058725  0.916840  0.931818
N547  N  0.058725  1.074013  0.022727
N548  N  0.058725  1.074013  0.068182
N549  N  0.058725  1.074013  0.113636
N550  N  0.058725  1.074013  0.159091
N551  N  0.058725  1.074013  0.204545
N552  N  0.058725  1.074013  0.250000
N553  N  0.058725  1.074013  0.295455
N554  N  0.058725  1.074013  0.340909
N555  N  0.058725  1.074013  0.386364
N556  N  0.058725  1.074013  0.431818
N557  N  0.058725  1.074013  0.477273
N558  N  0.058725  1.074013  0.522727
N559  N  0.058725  1.074013  0.568182
N560  N  0.058725  1.074013  0.613636
N561  N  0.058725  1.074013  0.659091
N562  N  0.058725  1.074013  0.704545
N563  N  0.058725  1.074013  0.750000
N564  N  0.058725  1.074013  0.795455
N565  N  0.058725  1.074013  0.840909
N566  N  0.058725  1.074013  0.886364
N567  N  0.058725  1.074013  0.931818
N568  N  0.058725  1.231185  0.022727
N569  N  0.058725  1.231185  0.068182
N570  N  0.058725  1.231185  0.113636
N571  N  0.058725  1.231185  0.159091
N572  N  0.058725  1.231185  0.204545
N573  N  0.058725  1.231185  0.250000
N574  N  0.058725  1.231185  0.295455
N575  N  0.058725  1.231185  0.340909
N576  N  0.058725  1.231185  0.386364
N577  N  0.058725  1.231185  0.431818
N578  N  0.058725  1.231185  0.477273
N579  N  0.058725  1.231185  0.522727
N580  N  0.058725  1.231185  0.568182
N581  N  0.058725  1.231185  0.613636
N582  N  0.058725  1.231185  0.659091
N583  N  0.058725  1.231185  0.704545
N584  N  0.058725  1.231185  0.750000
N585  N  0.058725  1.231185  0.795455
N586  N  0.058725  1.231185  0.840909
N587  N  0.058725  1.231185  0.886364
N588  N  0.058725  1.231185  0.931818
N589  N  0.215326  0.445322  0.022727
N590  N  0.215326  0.445322  0.068182
N591  N  0.215326  0.445322  0.113636
N592  N  0.215326  0.445322  0.159091
N593  N  0.215326  0.445322  0.204545
N594  N  0.215326  0.445322  0.250000
N595  N  0.215326  0.445322  0.295455
N596  N  0.215326  0.445322  0.340909
N597  N  0.215326  0.445322  0.386364
N598  N  0.215326  0.445322  0.431818
N599  N  0.215326  0.445322  0.477273
N600  N  0.215326  0.445322  0.522727
N601  N  0.215326  0.445322  0.568182
N602  N  0.215326  0.445322  0.613636
N603  N  0.215326  0.445322  0.659091
N604  N  0.215326  0.445322  0.704545
N605  N  0.215326  0.445322  0.750000
N606  N  0.215326  0.445322  0.795455
N607  N  0.215326  0.445322  0.840909
N608  N  0.215326  0.445322  0.886364
N609  N  0.215326  0.445322  0.931818
N610  N  0.215326  0.602495  0.022727
N611  N  0.215326  0.602495  0.068182
N612  N  0.215326  0.602495  0.113636
N613  N  0.215326  0.602495  0.159091
N614  N  0.215326  0.602495  0.204545
N615  N  0.215326  0.602495  0.250000
N616  N  0.215326  0.602495  0.295455
N617  N  0.215326  0.602495  0.340909
N618  N  0.215326  0.602495  0.386364
N619  N  0.215326  0.602495  0.431818
N620  N  0.215326  0.602495  0.477273
N621  N  0.215326  0.602495  0.522727
N622  N  0.215326  0.602495  0.568182
N623  N  0.215326  0.602495  0.613636
N624  N  0.215326  0.602495  0.659091
N625  N  0.215326  0.602495  0.704545
N626  N  0.215326  0.602495  0.750000
N627  N  0.215326  0.602495  0.795455
N628  N  0.215326  0.602495  0.840909
N629  N  0.215326  0.602495  0.886364
N630  N  0.215326  0.602495  0.931818
N631  N  0.215326  0.759668  0.022727
N632  N  0.215326  0.759668  0.068182
N633  N  0.215326  0.759668  0.113636
N634  N  0.215326  0.759668  0.159091
N635  N  0.215326  0.759668  0.204545
N636  N  0.215326  0.759668  0.250000
N637  N  0.215326  0.759668  0.295455
N638  N  0.215326  0.759668  0.340909
N639  N  0.215326  0.759668  0.386364
N640  N  0.215326  0.759668  0.431818
N641  N  0.215326  0.759668  0.477273
N642  N  0.215326  0.759668  0.522727
N643  N  0.215326  0.759668  0.568182
N644  N  0.215326  0.759668  0.613636
N645  N  0.215326  0.759668  0.659091
N646  N  0.215326  0.759668  0.704545
N647  N  0.215326  0.759668  0.750000
N648  N  0.215326  0.759668  0.795455
N649  N  0.215326  0.759668  0.840909
N650  N  0.215326  0.759668  0.886364
N651  N  0.215326  0.759668  0.931818
N652  N  0.215326  0.916840  0.022727
N653  N  0.215326  0.916840  0.068182
N654  N  0.215326  0.916840  0.113636
N655  N  0.215326  0.916840  0.159091
N656  N  0.215326  0.916840  0.204545
N657  N  0.215326  0.916840  0.250000
N658  N  0.215326  0.916840  0.295455
N659  N  0.215326  0.916840  0.340909
N660  N  0.215326  0.916840  0.386364
N661  N  0.215326  0.916840  0.431818
N662  N  0.215326  0.916840  0.477273
N663  N  0.215326  0.916840  0.522727
N664  N  0.215326  0.916840  0.568182
N665  N  0.215326  0.916840  0.613636
N666  N  0.215326  0.916840  0.659091
N667  N  0.215326  0.916840  0.704545
N668  N  0.215326  0.916840  0.750000
N669  N  0.215326  0.916840  0.795455
N670  N  0.215326  0.916840  0.840909
N671  N  0.215326  0.916840  0.886364
N672  N  0.215326  0.916840  0.931818
N673  N  0.215326  1.074013  0.022727
N674  N  0.215326  1.074013  0.068182
N675  N  0.215326  1.074013  0.113636
N676  N  0.215326  1.074013  0.159091
N677  N  0.215326  1.074013  0.204545
N678  N  0.215326  1.074013  0.250000
N679  N  0.215326  1.074013  0.295455
N680  N  0.215326  1.074013  0.340909
N681  N  0.215326  1.074013  0.386364
N682  N  0.215326  1.074013  0.431818
N683  N  0.215326  1.074013  0.477273
N684  N  0.215326  1.074013  0.522727
N685  N  0.215326  1.074013  0.568182
N686  N  0.215326  1.074013  0.613636
N687  N  0.215326  1.074013  0.659091
N688  N  0.215326  1.074013  0.704545
N689  N  0.215326  1.074013  0.750000
N690  N  0.215326  1.074013  0.795455
N691  N  0.215326  1.074013  0.840909
N692  N  0.215326  1.074013  0.886364
N693  N  0.215326  1.074013  0.931818
N694  N  0.371927  0.602495  0.022727
N695  N  0.371927  0.602495  0.068182
N696  N  0.371927  0.602495  0.113636
N697  N  0.371927  0.602495  0.159091
N698  N  0.371927  0.602495  0.204545
N699  N  0.371927  0.602495  0.250000
N700  N  0.371927  0.602495  0.295455
N701  N  0.371927  0.602495  0.340909
N702  N  0.371927  0.602495  0.386364
N703  N  0.371927  0.602495  0.431818
N704  N  0.371927  0.602495  0.477273
N705  N  0.371927  0.602495  0.522727
N706  N  0.371927  0.602495  0.568182
N707  N  0.371927  0.602495  0.613636
N708  N  0.371927  0.602495  0.659091
N709  N  0.371927  0.602495  0.704545
N710  N  0.371927  0.602495  0.750000
N711  N  0.371927  0.602495  0.795455
N712  N  0.371927  0.602495  0.840909
N713  N  0.371927  0.602495  0.886364
N714  N  0.371927  0.602495  0.931818
N715  N  0.371927  0.759668  0.022727
N716  N  0.371927  0.759668  0.068182
N717  N  0.371927  0.759668  0.113636
N718  N  0.371927  0.759668  0.159091
N719  N  0.371927  0.759668  0.204545
N720  N  0.371927  0.759668  0.250000
N721  N  0.371927  0.759668  0.295455
N722  N  0.371927  0.759668  0.340909
N723  N  0.371927  0.759668  0.386364
N724  N  0.371927  0.759668  0.431818
N725  N  0.371927  0.759668  0.477273
N726  N  0.371927  0.759668  0.522727
N727  N  0.371927  0.759668  0.568182
N728  N  0.371927  0.759668  0.613636
N729  N  0.371927  0.759668  0.659091
N730  N  0.371927  0.759668  0.704545
N731  N  0.371927  0.759668  0.750000
N732  N  0.371927  0.759668  0.795455
N733  N  0.371927  0.759668  0.840909
N734  N  0.371927  0.759668  0.886364
N735  N  0.371927  0.759668  0.931818
N736  N  0.371927  0.916840  0.022727
N737  N  0.371927  0.916840  0.068182
N738  N  0.371927  0.916840  0.113636
N739  N  0.371927  0.916840  0.159091
N740  N  0.371927  0.916840  0.204545
N741  N  0.371927  0.916840  0.250000
N742  N  0.371927  0.916840  0.295455
N743  N  0.371927  0.916840  0.340909
N744  N  0.371927  0.916840  0.386364
N745  N  0.371927  0.916840  0.431818
N746  N  0.371927  0.916840  0.477273
N747  N  0.371927  0.916840  0.522727
N748  N  0.371927  0.916840  0.568182
N749  N  0.371927  0.916840  0.613636
N750  N  0.371927  0.916840  0.659091
N751  N  0.371927  0.916840  0.704545
N752  N  0.371927  0.916840  0.750000
N753  N  0.371927  0.916840  0.795455
N754  N  0.371927  0.916840  0.840909
N755  N  0.371927  0.916840  0.886364
N756  N  0.371927  0.916840  0.931818
N757  N  0.371927  1.074013  0.022727
N758  N  0.371927  1.074013  0.068182
N759  N  0.371927  1.074013  0.113636
N760  N  0.371927  1.074013  0.159091
N761  N  0.371927  1.074013  0.204545
N762  N  0.371927  1.074013  0.250000
N763  N  0.371927  1.074013  0.295455
N764  N  0.371927  1.074013  0.340909
N765  N  0.371927  1.074013  0.386364
N766  N  0.371927  1.074013  0.431818
N767  N  0.371927  1.074013  0.477273
N768  N  0.371927  1.074013  0.522727
N769  N  0.371927  1.074013  0.568182
N770  N  0.371927  1.074013  0.613636
N771  N  0.371927  1.074013  0.659091
N772  N  0.371927  1.074013  0.704545
N773  N  0.371927  1.074013  0.750000
N774  N  0.371927  1.074013  0.795455
N775  N  0.371927  1.074013  0.840909
N776  N  0.371927  1.074013  0.886364
N777  N  0.371927  1.074013  0.931818
N778  N  0.528529  0.602495  0.022727
N779  N  0.528529  0.602495  0.068182
N780  N  0.528529  0.602495  0.113636
N781  N  0.528529  0.602495  0.159091
N782  N  0.528529  0.602495  0.204545
N783  N  0.528529  0.602495  0.250000
N784  N  0.528529  0.602495  0.295455
N785  N  0.528529  0.602495  0.340909
N786  N  0.528529  0.602495  0.386364
N787  N  0.528529  0.602495  0.431818
N788  N  0.528529  0.602495  0.477273
N789  N  0.528529  0.602495  0.522727
N790  N  0.528529  0.602495  0.568182
N791  N  0.528529  0.602495  0.613636
N792  N  0.528529  0.602495  0.659091
N793  N  0.528529  0.602495  0.704545
N794  N  0.528529  0.602495  0.750000
N795  N  0.528529  0.602495  0.795455
N796  N  0.528529  0.602495  0.840909
N797  N  0.528529  0.602495  0.886364
N798  N  0.528529  0.602495  0.931818
N799  N  0.528529  0.759668  0.022727
N800  N  0.528529  0.759668  0.068182
N801  N  0.528529  0.759668  0.113636
N802  N  0.528529  0.759668  0.159091
N803  N  0.528529  0.759668  0.204545
N804  N  0.528529  0.759668  0.250000
N805  N  0.528529  0.759668  0.295455
N806  N  0.528529  0.759668  0.340909
N807  N  0.528529  0.759668  0.386364
N808  N  0.528529  0.759668  0.431818
N809  N  0.528529  0.759668  0.477273
N810  N  0.528529  0.759668  0.522727
N811  N  0.528529  0.759668  0.568182
N812  N  0.528529  0.759668  0.613636
N813  N  0.528529  0.759668  0.659091
N814  N  0.528529  0.759668  0.704545
N815  N  0.528529  0.759668  0.750000
N816  N  0.528529  0.759668  0.795455
N817  N  0.528529  0.759668  0.840909
N818  N  0.528529  0.759668  0.886364
N819  N  0.528529  0.759668  0.931818
N820  N  0.528529  0.916840  0.022727
N821  N  0.528529  0.916840  0.068182
N822  N  0.528529  0.916840  0.113636
N823  N  0.528529  0.916840  0.159091
N824  N  0.528529  0.916840  0.204545
N825  N  0.528529  0.916840  0.250000
N826  N  0.528529  0.916840  0.295455
N827  N  0.528529  0.916840  0.340909
N828  N  0.528529  0.916840  0.386364
N829  N  0.528529  0.916840  0.431818
N830  N  0.528529  0.916840  0.477273
N831  N  0.528529  0.916840  0.522727
N832  N  0.528529  0.916840  0.568182
N833  N  0.528529  0.916840  0.613636
N834  N  0.528529  0.916840  0.659091
N835  N  0.528529  0.916840  0.704545
N836  N  0.528529  0.916840  0.750000
N837  N  0.528529  0.916840  0.795455
N838  N  0.528529  0.916840  0.840909
N839  N  0.528529  0.916840  0.886364
N840  N  0.528529  0.916840  0.931818
N841  N  0.685130  0.759668  0.022727
N842  N  0.685130  0.759668  0.068182
N843  N  0.685130  0.759668  0.113636
N844  N  0.685130  0.759668  0.159091
N845  N  0.685130  0.759668  0.204545
N846  N  0.685130  0.759668  0.250000
N847  N  0.685130  0.759668  0.295455
N848  N  0.685130  0.759668  0.340909
N849  N  0.685130  0.759668  0.386364
N850  N  0.685130  0.759668  0.431818
N851  N  0.685130  0.759668  0.477273
N852  N  0.685130  0.759668  0.522727
N853  N  0.685130  0.759668  0.568182
N854  N  0.685130  0.759668  0.613636
N855  N  0.685130  0.759668  0.659091
N856  N  0.685130  0.759668  0.704545
N857  N  0.685130  0.759668  0.750000
N858  N  0.685130  0.759668  0.795455
N859  N  0.685130  0.759668  0.840909
N860  N  0.685130  0.759668  0.886364
N861  N  0.685130  0.759668  0.931818
N862  N  0.685130  0.916840  0.022727
N863  N  0.685130  0.916840  0.068182
N864  N  0.685130  0.916840  0.113636
N865  N  0.685130  0.916840  0.159091
N866  N  0.685130  0.916840  0.204545
N867  N  0.685130  0.916840  0.250000
N868  N  0.685130  0.916840  0.295455
N869  N  0.685130  0.916840  0.340909
N870  N  0.685130  0.916840  0.386364
N871  N  0.685130  0.916840  0.431818
N872  N  0.685130  0.916840  0.477273
N873  N  0.685130  0.916840  0.522727
N874  N  0.685130  0.916840  0.568182
N875  N  0.685130  0.916840  0.613636
N876  N  0.685130  0.916840  0.659091
N877  N  0.685130  0.916840  0.704545
N878  N  0.685130  0.916840  0.750000
N879  N  0.685130  0.916840  0.795455
N880  N  0.685130  0.916840  0.840909
N881  N  0.685130  0.916840  0.886364
N882  N  0.685130  0.916840  0.931818
N883  N  0.841731  0.759668  0.022727
N884  N  0.841731  0.759668  0.068182
N885  N  0.841731  0.759668  0.113636
N886  N  0.841731  0.759668  0.159091
N887  N  0.841731  0.759668  0.204545
N888  N  0.841731  0.759668  0.250000
N889  N  0.841731  0.759668  0.295455
N890  N  0.841731  0.759668  0.340909
N891  N  0.841731  0.759668  0.386364
N892  N  0.841731  0.759668  0.431818
N893  N  0.841731  0.759668  0.477273
N894  N  0.841731  0.759668  0.522727
N895  N  0.841731  0.759668  0.568182
N896  N  0.841731  0.759668  0.613636
N897  N  0.841731  0.759668  0.659091
N898  N  0.841731  0.759668  0.704545
N899  N  0.841731  0.759668  0.750000
N900  N  0.841731  0.759668  0.795455
N901  N  0.841731  0.759668  0.840909
N902  N  0.841731  0.759668  0.886364
N903  N  0.841731  0.759668  0.931818
N904  N  0.137026  0.419127  0.000000
N905  N  0.137026  0.419127  0.954545
N906  N  0.137026  0.419127  0.045455
N907  N  0.137026  0.419127  0.090909
N908  N  0.137026  0.419127  0.136364
N909  N  0.137026  0.419127  0.181818
N910  N  0.137026  0.419127  0.227273
N911  N  0.137026  0.419127  0.272727
N912  N  0.137026  0.419127  0.318182
N913  N  0.137026  0.419127  0.363636
N914  N  0.137026  0.419127  0.409091
N915  N  0.137026  0.419127  0.454545
N916  N  0.137026  0.419127  0.500000
N917  N  0.137026  0.419127  0.545455
N918  N  0.137026  0.419127  0.590909
N919  N  0.137026  0.419127  0.636364
N920  N  0.137026  0.419127  0.681818
N921  N  0.137026  0.419127  0.727273
N922  N  0.137026  0.419127  0.772727
N923  N  0.137026  0.419127  0.818182
N924  N  0.137026  0.419127  0.863636
N925  N  0.137026  0.419127  0.909091
N926  N  0.137026  0.576300  0.000000
N927  N  0.137026  0.576300  0.954545
N928  N  0.137026  0.576300  0.045455
N929  N  0.137026  0.576300  0.090909
N930  N  0.137026  0.576300  0.136364
N931  N  0.137026  0.576300  0.181818
N932  N  0.137026  0.576300  0.227273
N933  N  0.137026  0.576300  0.272727
N934  N  0.137026  0.576300  0.318182
N935  N  0.137026  0.576300  0.363636
N936  N  0.137026  0.576300  0.409091
N937  N  0.137026  0.576300  0.454545
N938  N  0.137026  0.576300  0.500000
N939  N  0.137026  0.576300  0.545455
N940  N  0.137026  0.576300  0.590909
N941  N  0.137026  0.576300  0.636364
N942  N  0.137026  0.576300  0.681818
N943  N  0.137026  0.576300  0.727273
N944  N  0.137026  0.576300  0.772727
N945  N  0.137026  0.576300  0.818182
N946  N  0.137026  0.576300  0.863636
N947  N  0.137026  0.576300  0.909091
N948  N  0.137026  0.733472  0.000000
N949  N  0.137026  0.733472  0.954545
N950  N  0.137026  0.733472  0.045455
N951  N  0.137026  0.733472  0.090909
N952  N  0.137026  0.733472  0.136364
N953  N  0.137026  0.733472  0.181818
N954  N  0.137026  0.733472  0.227273
N955  N  0.137026  0.733472  0.272727
N956  N  0.137026  0.733472  0.318182
N957  N  0.137026  0.733472  0.363636
N958  N  0.137026  0.733472  0.409091
N959  N  0.137026  0.733472  0.454545
N960  N  0.137026  0.733472  0.500000
N961  N  0.137026  0.733472  0.545455
N962  N  0.137026  0.733472  0.590909
N963  N  0.137026  0.733472  0.636364
N964  N  0.137026  0.733472  0.681818
N965  N  0.137026  0.733472  0.727273
N966  N  0.137026  0.733472  0.772727
N967  N  0.137026  0.733472  0.818182
N968  N  0.137026  0.733472  0.863636
N969  N  0.137026  0.733472  0.909091
N970  N  0.137026  0.890645  0.000000
N971  N  0.137026  0.890645  0.954545
N972  N  0.137026  0.890645  0.045455
N973  N  0.137026  0.890645  0.090909
N974  N  0.137026  0.890645  0.136364
N975  N  0.137026  0.890645  0.181818
N976  N  0.137026  0.890645  0.227273
N977  N  0.137026  0.890645  0.272727
N978  N  0.137026  0.890645  0.318182
N979  N  0.137026  0.890645  0.363636
N980  N  0.137026  0.890645  0.409091
N981  N  0.137026  0.890645  0.454545
N982  N  0.137026  0.890645  0.500000
N983  N  0.137026  0.890645  0.545455
N984  N  0.137026  0.890645  0.590909
N985  N  0.137026  0.890645  0.636364
N986  N  0.137026  0.890645  0.681818
N987  N  0.137026  0.890645  0.727273
N988  N  0.137026  0.890645  0.772727
N989  N  0.137026  0.890645  0.818182
N990  N  0.137026  0.890645  0.863636
N991  N  0.137026  0.890645  0.909091
N992  N  0.137026  1.047817  0.000000
N993  N  0.137026  1.047817  0.954545
N994  N  0.137026  1.047817  0.045455
N995  N  0.137026  1.047817  0.090909
N996  N  0.137026  1.047817  0.136364
N997  N  0.137026  1.047817  0.181818
N998  N  0.137026  1.047817  0.227273
N999  N  0.137026  1.047817  0.272727
N1000  N  0.137026  1.047817  0.318182
N1001  N  0.137026  1.047817  0.363636
N1002  N  0.137026  1.047817  0.409091
N1003  N  0.137026  1.047817  0.454545
N1004  N  0.137026  1.047817  0.500000
N1005  N  0.137026  1.047817  0.545455
N1006  N  0.137026  1.047817  0.590909
N1007  N  0.137026  1.047817  0.636364
N1008  N  0.137026  1.047817  0.681818
N1009  N  0.137026  1.047817  0.727273
N1010  N  0.137026  1.047817  0.772727
N1011  N  0.137026  1.047817  0.818182
N1012  N  0.137026  1.047817  0.863636
N1013  N  0.137026  1.047817  0.909091
N1014  N  0.137026  1.204990  0.000000
N1015  N  0.137026  1.204990  0.954545
N1016  N  0.137026  1.204990  0.045455
N1017  N  0.137026  1.204990  0.090909
N1018  N  0.137026  1.204990  0.136364
N1019  N  0.137026  1.204990  0.181818
N1020  N  0.137026  1.204990  0.227273
N1021  N  0.137026  1.204990  0.272727
N1022  N  0.137026  1.204990  0.318182
N1023  N  0.137026  1.204990  0.363636
N1024  N  0.137026  1.204990  0.409091
N1025  N  0.137026  1.204990  0.454545
N1026  N  0.137026  1.204990  0.500000
N1027  N  0.137026  1.204990  0.545455
N1028  N  0.137026  1.204990  0.590909
N1029  N  0.137026  1.204990  0.636364
N1030  N  0.137026  1.204990  0.681818
N1031  N  0.137026  1.204990  0.727273
N1032  N  0.137026  1.204990  0.772727
N1033  N  0.137026  1.204990  0.818182
N1034  N  0.137026  1.204990  0.863636
N1035  N  0.137026  1.204990  0.909091
N1036  N  0.293627  0.576300  0.000000
N1037  N  0.293627  0.576300  0.954545
N1038  N  0.293627  0.576300  0.045455
N1039  N  0.293627  0.576300  0.090909
N1040  N  0.293627  0.576300  0.136364
N1041  N  0.293627  0.576300  0.181818
N1042  N  0.293627  0.576300  0.227273
N1043  N  0.293627  0.576300  0.272727
N1044  N  0.293627  0.576300  0.318182
N1045  N  0.293627  0.576300  0.363636
N1046  N  0.293627  0.576300  0.409091
N1047  N  0.293627  0.576300  0.454545
N1048  N  0.293627  0.576300  0.500000
N1049  N  0.293627  0.576300  0.545455
N1050  N  0.293627  0.576300  0.590909
N1051  N  0.293627  0.576300  0.636364
N1052  N  0.293627  0.576300  0.681818
N1053  N  0.293627  0.576300  0.727273
N1054  N  0.293627  0.576300  0.772727
N1055  N  0.293627  0.576300  0.818182
N1056  N  0.293627  0.576300  0.863636
N1057  N  0.293627  0.576300  0.909091
N1058  N  0.293627  0.733472  0.000000
N1059  N  0.293627  0.733472  0.954545
N1060  N  0.293627  0.733472  0.045455
N1061  N  0.293627  0.733472  0.090909
N1062  N  0.293627  0.733472  0.136364
N1063  N  0.293627  0.733472  0.181818
N1064  N  0.293627  0.733472  0.227273
N1065  N  0.293627  0.733472  0.272727
N1066  N  0.293627  0.733472  0.318182
N1067  N  0.293627  0.733472  0.363636
N1068  N  0.293627  0.733472  0.409091
N1069  N  0.293627  0.733472  0.454545
N1070  N  0.293627  0.733472  0.500000
N1071  N  0.293627  0.733472  0.545455
N1072  N  0.293627  0.733472  0.590909
N1073  N  0.293627  0.733472  0.636364
N1074  N  0.293627  0.733472  0.681818
N1075  N  0.293627  0.733472  0.727273
N1076  N  0.293627  0.733472  0.772727
N1077  N  0.293627  0.733472  0.818182
N1078  N  0.293627  0.733472  0.863636
N1079  N  0.293627  0.733472  0.909091
N1080  N  0.293627  0.890645  0.000000
N1081  N  0.293627  0.890645  0.954545
N1082  N  0.293627  0.890645  0.045455
N1083  N  0.293627  0.890645  0.090909
N1084  N  0.293627  0.890645  0.136364
N1085  N  0.293627  0.890645  0.181818
N1086  N  0.293627  0.890645  0.227273
N1087  N  0.293627  0.890645  0.272727
N1088  N  0.293627  0.890645  0.318182
N1089  N  0.293627  0.890645  0.363636
N1090  N  0.293627  0.890645  0.409091
N1091  N  0.293627  0.890645  0.454545
N1092  N  0.293627  0.890645  0.500000
N1093  N  0.293627  0.890645  0.545455
N1094  N  0.293627  0.890645  0.590909
N1095  N  0.293627  0.890645  0.636364
N1096  N  0.293627  0.890645  0.681818
N1097  N  0.293627  0.890645  0.727273
N1098  N  0.293627  0.890645  0.772727
N1099  N  0.293627  0.890645  0.818182
N1100  N  0.293627  0.890645  0.863636
N1101  N  0.293627  0.890645  0.909091
N1102  N  0.293627  1.047817  0.000000
N1103  N  0.293627  1.047817  0.954545
N1104  N  0.293627  1.047817  0.045455
N1105  N  0.293627  1.047817  0.090909
N1106  N  0.293627  1.047817  0.136364
N1107  N  0.293627  1.047817  0.181818
N1108  N  0.293627  1.047817  0.227273
N1109  N  0.293627  1.047817  0.272727
N1110  N  0.293627  1.047817  0.318182
N1111  N  0.293627  1.047817  0.363636
N1112  N  0.293627  1.047817  0.409091
N1113  N  0.293627  1.047817  0.454545
N1114  N  0.293627  1.047817  0.500000
N1115  N  0.293627  1.047817  0.545455
N1116  N  0.293627  1.047817  0.590909
N1117  N  0.293627  1.047817  0.636364
N1118  N  0.293627  1.047817  0.681818
N1119  N  0.293627  1.047817  0.727273
N1120  N  0.293627  1.047817  0.772727
N1121  N  0.293627  1.047817  0.818182
N1122  N  0.293627  1.047817  0.863636
N1123  N  0.293627  1.047817  0.909091
N1124  N  0.450228  0.576300  0.000000
N1125  N  0.450228  0.576300  0.954545
N1126  N  0.450228  0.576300  0.045455
N1127  N  0.450228  0.576300  0.090909
N1128  N  0.450228  0.576300  0.136364
N1129  N  0.450228  0.576300  0.181818
N1130  N  0.450228  0.576300  0.227273
N1131  N  0.450228  0.576300  0.272727
N1132  N  0.450228  0.576300  0.318182
N1133  N  0.450228  0.576300  0.363636
N1134  N  0.450228  0.576300  0.409091
N1135  N  0.450228  0.576300  0.454545
N1136  N  0.450228  0.576300  0.500000
N1137  N  0.450228  0.576300  0.545455
N1138  N  0.450228  0.576300  0.590909
N1139  N  0.450228  0.576300  0.636364
N1140  N  0.450228  0.576300  0.681818
N1141  N  0.450228  0.576300  0.727273
N1142  N  0.450228  0.576300  0.772727
N1143  N  0.450228  0.576300  0.818182
N1144  N  0.450228  0.576300  0.863636
N1145  N  0.450228  0.576300  0.909091
N1146  N  0.450228  0.733472  0.000000
N1147  N  0.450228  0.733472  0.954545
N1148  N  0.450228  0.733472  0.045455
N1149  N  0.450228  0.733472  0.090909
N1150  N  0.450228  0.733472  0.136364
N1151  N  0.450228  0.733472  0.181818
N1152  N  0.450228  0.733472  0.227273
N1153  N  0.450228  0.733472  0.272727
N1154  N  0.450228  0.733472  0.318182
N1155  N  0.450228  0.733472  0.363636
N1156  N  0.450228  0.733472  0.409091
N1157  N  0.450228  0.733472  0.454545
N1158  N  0.450228  0.733472  0.500000
N1159  N  0.450228  0.733472  0.545455
N1160  N  0.450228  0.733472  0.590909
N1161  N  0.450228  0.733472  0.636364
N1162  N  0.450228  0.733472  0.681818
N1163  N  0.450228  0.733472  0.727273
N1164  N  0.450228  0.733472  0.772727
N1165  N  0.450228  0.733472  0.818182
N1166  N  0.450228  0.733472  0.863636
N1167  N  0.450228  0.733472  0.909091
N1168  N  0.450228  0.890645  0.000000
N1169  N  0.450228  0.890645  0.954545
N1170  N  0.450228  0.890645  0.045455
N1171  N  0.450228  0.890645  0.090909
N1172  N  0.450228  0.890645  0.136364
N1173  N  0.450228  0.890645  0.181818
N1174  N  0.450228  0.890645  0.227273
N1175  N  0.450228  0.890645  0.272727
N1176  N  0.450228  0.890645  0.318182
N1177  N  0.450228  0.890645  0.363636
N1178  N  0.450228  0.890645  0.409091
N1179  N  0.450228  0.890645  0.454545
N1180  N  0.450228  0.890645  0.500000
N1181  N  0.450228  0.890645  0.545455
N1182  N  0.450228  0.890645  0.590909
N1183  N  0.450228  0.890645  0.636364
N1184  N  0.450228  0.890645  0.681818
N1185  N  0.450228  0.890645  0.727273
N1186  N  0.450228  0.890645  0.772727
N1187  N  0.450228  0.890645  0.818182
N1188  N  0.450228  0.890645  0.863636
N1189  N  0.450228  0.890645  0.909091
N1190  N  0.450228  1.047817  0.000000
N1191  N  0.450228  1.047817  0.954545
N1192  N  0.450228  1.047817  0.045455
N1193  N  0.450228  1.047817  0.090909
N1194  N  0.450228  1.047817  0.136364
N1195  N  0.450228  1.047817  0.181818
N1196  N  0.450228  1.047817  0.227273
N1197  N  0.450228  1.047817  0.272727
N1198  N  0.450228  1.047817  0.318182
N1199  N  0.450228  1.047817  0.363636
N1200  N  0.450228  1.047817  0.409091
N1201  N  0.450228  1.047817  0.454545
N1202  N  0.450228  1.047817  0.500000
N1203  N  0.450228  1.047817  0.545455
N1204  N  0.450228  1.047817  0.590909
N1205  N  0.450228  1.047817  0.636364
N1206  N  0.450228  1.047817  0.681818
N1207  N  0.450228  1.047817  0.727273
N1208  N  0.450228  1.047817  0.772727
N1209  N  0.450228  1.047817  0.818182
N1210  N  0.450228  1.047817  0.863636
N1211  N  0.450228  1.047817  0.909091
N1212  N  0.606829  0.733472  0.000000
N1213  N  0.606829  0.733472  0.954545
N1214  N  0.606829  0.733472  0.045455
N1215  N  0.606829  0.733472  0.090909
N1216  N  0.606829  0.733472  0.136364
N1217  N  0.606829  0.733472  0.181818
N1218  N  0.606829  0.733472  0.227273
N1219  N  0.606829  0.733472  0.272727
N1220  N  0.606829  0.733472  0.318182
N1221  N  0.606829  0.733472  0.363636
N1222  N  0.606829  0.733472  0.409091
N1223  N  0.606829  0.733472  0.454545
N1224  N  0.606829  0.733472  0.500000
N1225  N  0.606829  0.733472  0.545455
N1226  N  0.606829  0.733472  0.590909
N1227  N  0.606829  0.733472  0.636364
N1228  N  0.606829  0.733472  0.681818
N1229  N  0.606829  0.733472  0.727273
N1230  N  0.606829  0.733472  0.772727
N1231  N  0.606829  0.733472  0.818182
N1232  N  0.606829  0.733472  0.863636
N1233  N  0.606829  0.733472  0.909091
N1234  N  0.606829  0.890645  0.000000
N1235  N  0.606829  0.890645  0.954545
N1236  N  0.606829  0.890645  0.045455
N1237  N  0.606829  0.890645  0.090909
N1238  N  0.606829  0.890645  0.136364
N1239  N  0.606829  0.890645  0.181818
N1240  N  0.606829  0.890645  0.227273
N1241  N  0.606829  0.890645  0.272727
N1242  N  0.606829  0.890645  0.318182
N1243  N  0.606829  0.890645  0.363636
N1244  N  0.606829  0.890645  0.409091
N1245  N  0.606829  0.890645  0.454545
N1246  N  0.606829  0.890645  0.500000
N1247  N  0.606829  0.890645  0.545455
N1248  N  0.606829  0.890645  0.590909
N1249  N  0.606829  0.890645  0.636364
N1250  N  0.606829  0.890645  0.681818
N1251  N  0.606829  0.890645  0.727273
N1252  N  0.606829  0.890645  0.772727
N1253  N  0.606829  0.890645  0.818182
N1254  N  0.606829  0.890645  0.863636
N1255  N  0.606829  0.890645  0.909091
N1256  N  0.763430  0.733472  0.000000
N1257  N  0.763430  0.733472  0.954545
N1258  N  0.763430  0.733472  0.045455
N1259  N  0.763430  0.733472  0.090909
N1260  N  0.763430  0.733472  0.136364
N1261  N  0.763430  0.733472  0.181818
N1262  N  0.763430  0.733472  0.227273
N1263  N  0.763430  0.733472  0.272727
N1264  N  0.763430  0.733472  0.318182
N1265  N  0.763430  0.733472  0.363636
N1266  N  0.763430  0.733472  0.409091
N1267  N  0.763430  0.733472  0.454545
N1268  N  0.763430  0.733472  0.500000
N1269  N  0.763430  0.733472  0.545455
N1270  N  0.763430  0.733472  0.590909
N1271  N  0.763430  0.733472  0.636364
N1272  N  0.763430  0.733472  0.681818
N1273  N  0.763430  0.733472  0.727273
N1274  N  0.763430  0.733472  0.772727
N1275  N  0.763430  0.733472  0.818182
N1276  N  0.763430  0.733472  0.863636
N1277  N  0.763430  0.733472  0.909091
N1278  N  0.763430  0.890645  0.000000
N1279  N  0.763430  0.890645  0.954545
N1280  N  0.763430  0.890645  0.045455
N1281  N  0.763430  0.890645  0.090909
N1282  N  0.763430  0.890645  0.136364
N1283  N  0.763430  0.890645  0.181818
N1284  N  0.763430  0.890645  0.227273
N1285  N  0.763430  0.890645  0.272727
N1286  N  0.763430  0.890645  0.318182
N1287  N  0.763430  0.890645  0.363636
N1288  N  0.763430  0.890645  0.409091
N1289  N  0.763430  0.890645  0.454545
N1290  N  0.763430  0.890645  0.500000
N1291  N  0.763430  0.890645  0.545455
N1292  N  0.763430  0.890645  0.590909
N1293  N  0.763430  0.890645  0.636364
N1294  N  0.763430  0.890645  0.681818
N1295  N  0.763430  0.890645  0.727273
N1296  N  0.763430  0.890645  0.772727
N1297  N  0.763430  0.890645  0.818182
N1298  N  0.763430  0.890645  0.863636
N1299  N  0.763430  0.890645  0.909091
N1300  N  0.137026  0.497713  0.022727
N1301  N  0.137026  0.497713  0.068182
N1302  N  0.137026  0.497713  0.113636
N1303  N  0.137026  0.497713  0.159091
N1304  N  0.137026  0.497713  0.204545
N1305  N  0.137026  0.497713  0.250000
N1306  N  0.137026  0.497713  0.295455
N1307  N  0.137026  0.497713  0.340909
N1308  N  0.137026  0.497713  0.386364
N1309  N  0.137026  0.497713  0.431818
N1310  N  0.137026  0.497713  0.477273
N1311  N  0.137026  0.497713  0.522727
N1312  N  0.137026  0.497713  0.568182
N1313  N  0.137026  0.497713  0.613636
N1314  N  0.137026  0.497713  0.659091
N1315  N  0.137026  0.497713  0.704545
N1316  N  0.137026  0.497713  0.750000
N1317  N  0.137026  0.497713  0.795455
N1318  N  0.137026  0.497713  0.840909
N1319  N  0.137026  0.497713  0.886364
N1320  N  0.137026  0.497713  0.931818
N1321  N  0.137026  0.654886  0.022727
N1322  N  0.137026  0.654886  0.068182
N1323  N  0.137026  0.654886  0.113636
N1324  N  0.137026  0.654886  0.159091
N1325  N  0.137026  0.654886  0.204545
N1326  N  0.137026  0.654886  0.250000
N1327  N  0.137026  0.654886  0.295455
N1328  N  0.137026  0.654886  0.340909
N1329  N  0.137026  0.654886  0.386364
N1330  N  0.137026  0.654886  0.431818
N1331  N  0.137026  0.654886  0.477273
N1332  N  0.137026  0.654886  0.522727
N1333  N  0.137026  0.654886  0.568182
N1334  N  0.137026  0.654886  0.613636
N1335  N  0.137026  0.654886  0.659091
N1336  N  0.137026  0.654886  0.704545
N1337  N  0.137026  0.654886  0.750000
N1338  N  0.137026  0.654886  0.795455
N1339  N  0.137026  0.654886  0.840909
N1340  N  0.137026  0.654886  0.886364
N1341  N  0.137026  0.654886  0.931818
N1342  N  0.137026  0.812058  0.022727
N1343  N  0.137026  0.812058  0.068182
N1344  N  0.137026  0.812058  0.113636
N1345  N  0.137026  0.812058  0.159091
N1346  N  0.137026  0.812058  0.204545
N1347  N  0.137026  0.812058  0.250000
N1348  N  0.137026  0.812058  0.295455
N1349  N  0.137026  0.812058  0.340909
N1350  N  0.137026  0.812058  0.386364
N1351  N  0.137026  0.812058  0.431818
N1352  N  0.137026  0.812058  0.477273
N1353  N  0.137026  0.812058  0.522727
N1354  N  0.137026  0.812058  0.568182
N1355  N  0.137026  0.812058  0.613636
N1356  N  0.137026  0.812058  0.659091
N1357  N  0.137026  0.812058  0.704545
N1358  N  0.137026  0.812058  0.750000
N1359  N  0.137026  0.812058  0.795455
N1360  N  0.137026  0.812058  0.840909
N1361  N  0.137026  0.812058  0.886364
N1362  N  0.137026  0.812058  0.931818
N1363  N  0.137026  0.969231  0.022727
N1364  N  0.137026  0.969231  0.068182
N1365  N  0.137026  0.969231  0.113636
N1366  N  0.137026  0.969231  0.159091
N1367  N  0.137026  0.969231  0.204545
N1368  N  0.137026  0.969231  0.250000
N1369  N  0.137026  0.969231  0.295455
N1370  N  0.137026  0.969231  0.340909
N1371  N  0.137026  0.969231  0.386364
N1372  N  0.137026  0.969231  0.431818
N1373  N  0.137026  0.969231  0.477273
N1374  N  0.137026  0.969231  0.522727
N1375  N  0.137026  0.969231  0.568182
N1376  N  0.137026  0.969231  0.613636
N1377  N  0.137026  0.969231  0.659091
N1378  N  0.137026  0.969231  0.704545
N1379  N  0.137026  0.969231  0.750000
N1380  N  0.137026  0.969231  0.795455
N1381  N  0.137026  0.969231  0.840909
N1382  N  0.137026  0.969231  0.886364
N1383  N  0.137026  0.969231  0.931818
N1384  N  0.137026  1.126404  0.022727
N1385  N  0.137026  1.126404  0.068182
N1386  N  0.137026  1.126404  0.113636
N1387  N  0.137026  1.126404  0.159091
N1388  N  0.137026  1.126404  0.204545
N1389  N  0.137026  1.126404  0.250000
N1390  N  0.137026  1.126404  0.295455
N1391  N  0.137026  1.126404  0.340909
N1392  N  0.137026  1.126404  0.386364
N1393  N  0.137026  1.126404  0.431818
N1394  N  0.137026  1.126404  0.477273
N1395  N  0.137026  1.126404  0.522727
N1396  N  0.137026  1.126404  0.568182
N1397  N  0.137026  1.126404  0.613636
N1398  N  0.137026  1.126404  0.659091
N1399  N  0.137026  1.126404  0.704545
N1400  N  0.137026  1.126404  0.750000
N1401  N  0.137026  1.126404  0.795455
N1402  N  0.137026  1.126404  0.840909
N1403  N  0.137026  1.126404  0.886364
N1404  N  0.137026  1.126404  0.931818
N1405  N  0.293627  0.497713  0.022727
N1406  N  0.293627  0.497713  0.068182
N1407  N  0.293627  0.497713  0.113636
N1408  N  0.293627  0.497713  0.159091
N1409  N  0.293627  0.497713  0.204545
N1410  N  0.293627  0.497713  0.250000
N1411  N  0.293627  0.497713  0.295455
N1412  N  0.293627  0.497713  0.340909
N1413  N  0.293627  0.497713  0.386364
N1414  N  0.293627  0.497713  0.431818
N1415  N  0.293627  0.497713  0.477273
N1416  N  0.293627  0.497713  0.522727
N1417  N  0.293627  0.497713  0.568182
N1418  N  0.293627  0.497713  0.613636
N1419  N  0.293627  0.497713  0.659091
N1420  N  0.293627  0.497713  0.704545
N1421  N  0.293627  0.497713  0.750000
N1422  N  0.293627  0.497713  0.795455
N1423  N  0.293627  0.497713  0.840909
N1424  N  0.293627  0.497713  0.886364
N1425  N  0.293627  0.497713  0.931818
N1426  N  0.293627  0.654886  0.022727
N1427  N  0.293627  0.654886  0.068182
N1428  N  0.293627  0.654886  0.113636
N1429  N  0.293627  0.654886  0.159091
N1430  N  0.293627  0.654886  0.204545
N1431  N  0.293627  0.654886  0.250000
N1432  N  0.293627  0.654886  0.295455
N1433  N  0.293627  0.654886  0.340909
N1434  N  0.293627  0.654886  0.386364
N1435  N  0.293627  0.654886  0.431818
N1436  N  0.293627  0.654886  0.477273
N1437  N  0.293627  0.654886  0.522727
N1438  N  0.293627  0.654886  0.568182
N1439  N  0.293627  0.654886  0.613636
N1440  N  0.293627  0.654886  0.659091
N1441  N  0.293627  0.654886  0.704545
N1442  N  0.293627  0.654886  0.750000
N1443  N  0.293627  0.654886  0.795455
N1444  N  0.293627  0.654886  0.840909
N1445  N  0.293627  0.654886  0.886364
N1446  N  0.293627  0.654886  0.931818
N1447  N  0.293627  0.812058  0.022727
N1448  N  0.293627  0.812058  0.068182
N1449  N  0.293627  0.812058  0.113636
N1450  N  0.293627  0.812058  0.159091
N1451  N  0.293627  0.812058  0.204545
N1452  N  0.293627  0.812058  0.250000
N1453  N  0.293627  0.812058  0.295455
N1454  N  0.293627  0.812058  0.340909
N1455  N  0.293627  0.812058  0.386364
N1456  N  0.293627  0.812058  0.431818
N1457  N  0.293627  0.812058  0.477273
N1458  N  0.293627  0.812058  0.522727
N1459  N  0.293627  0.812058  0.568182
N1460  N  0.293627  0.812058  0.613636
N1461  N  0.293627  0.812058  0.659091
N1462  N  0.293627  0.812058  0.704545
N1463  N  0.293627  0.812058  0.750000
N1464  N  0.293627  0.812058  0.795455
N1465  N  0.293627  0.812058  0.840909
N1466  N  0.293627  0.812058  0.886364
N1467  N  0.293627  0.812058  0.931818
N1468  N  0.293627  0.969231  0.022727
N1469  N  0.293627  0.969231  0.068182
N1470  N  0.293627  0.969231  0.113636
N1471  N  0.293627  0.969231  0.159091
N1472  N  0.293627  0.969231  0.204545
N1473  N  0.293627  0.969231  0.250000
N1474  N  0.293627  0.969231  0.295455
N1475  N  0.293627  0.969231  0.340909
N1476  N  0.293627  0.969231  0.386364
N1477  N  0.293627  0.969231  0.431818
N1478  N  0.293627  0.969231  0.477273
N1479  N  0.293627  0.969231  0.522727
N1480  N  0.293627  0.969231  0.568182
N1481  N  0.293627  0.969231  0.613636
N1482  N  0.293627  0.969231  0.659091
N1483  N  0.293627  0.969231  0.704545
N1484  N  0.293627  0.969231  0.750000
N1485  N  0.293627  0.969231  0.795455
N1486  N  0.293627  0.969231  0.840909
N1487  N  0.293627  0.969231  0.886364
N1488  N  0.293627  0.969231  0.931818
N1489  N  0.293627  1.126404  0.022727
N1490  N  0.293627  1.126404  0.068182
N1491  N  0.293627  1.126404  0.113636
N1492  N  0.293627  1.126404  0.159091
N1493  N  0.293627  1.126404  0.204545
N1494  N  0.293627  1.126404  0.250000
N1495  N  0.293627  1.126404  0.295455
N1496  N  0.293627  1.126404  0.340909
N1497  N  0.293627  1.126404  0.386364
N1498  N  0.293627  1.126404  0.431818
N1499  N  0.293627  1.126404  0.477273
N1500  N  0.293627  1.126404  0.522727
N1501  N  0.293627  1.126404  0.568182
N1502  N  0.293627  1.126404  0.613636
N1503  N  0.293627  1.126404  0.659091
N1504  N  0.293627  1.126404  0.704545
N1505  N  0.293627  1.126404  0.750000
N1506  N  0.293627  1.126404  0.795455
N1507  N  0.293627  1.126404  0.840909
N1508  N  0.293627  1.126404  0.886364
N1509  N  0.293627  1.126404  0.931818
N1510  N  0.450228  0.654886  0.022727
N1511  N  0.450228  0.654886  0.068182
N1512  N  0.450228  0.654886  0.113636
N1513  N  0.450228  0.654886  0.159091
N1514  N  0.450228  0.654886  0.204545
N1515  N  0.450228  0.654886  0.250000
N1516  N  0.450228  0.654886  0.295455
N1517  N  0.450228  0.654886  0.340909
N1518  N  0.450228  0.654886  0.386364
N1519  N  0.450228  0.654886  0.431818
N1520  N  0.450228  0.654886  0.477273
N1521  N  0.450228  0.654886  0.522727
N1522  N  0.450228  0.654886  0.568182
N1523  N  0.450228  0.654886  0.613636
N1524  N  0.450228  0.654886  0.659091
N1525  N  0.450228  0.654886  0.704545
N1526  N  0.450228  0.654886  0.750000
N1527  N  0.450228  0.654886  0.795455
N1528  N  0.450228  0.654886  0.840909
N1529  N  0.450228  0.654886  0.886364
N1530  N  0.450228  0.654886  0.931818
N1531  N  0.450228  0.812058  0.022727
N1532  N  0.450228  0.812058  0.068182
N1533  N  0.450228  0.812058  0.113636
N1534  N  0.450228  0.812058  0.159091
N1535  N  0.450228  0.812058  0.204545
N1536  N  0.450228  0.812058  0.250000
N1537  N  0.450228  0.812058  0.295455
N1538  N  0.450228  0.812058  0.340909
N1539  N  0.450228  0.812058  0.386364
N1540  N  0.450228  0.812058  0.431818
N1541  N  0.450228  0.812058  0.477273
N1542  N  0.450228  0.812058  0.522727
N1543  N  0.450228  0.812058  0.568182
N1544  N  0.450228  0.812058  0.613636
N1545  N  0.450228  0.812058  0.659091
N1546  N  0.450228  0.812058  0.704545
N1547  N  0.450228  0.812058  0.750000
N1548  N  0.450228  0.812058  0.795455
N1549  N  0.450228  0.812058  0.840909
N1550  N  0.450228  0.812058  0.886364
N1551  N  0.450228  0.812058  0.931818
N1552  N  0.450228  0.969231  0.022727
N1553  N  0.450228  0.969231  0.068182
N1554  N  0.450228  0.969231  0.113636
N1555  N  0.450228  0.969231  0.159091
N1556  N  0.450228  0.969231  0.204545
N1557  N  0.450228  0.969231  0.250000
N1558  N  0.450228  0.969231  0.295455
N1559  N  0.450228  0.969231  0.340909
N1560  N  0.450228  0.969231  0.386364
N1561  N  0.450228  0.969231  0.431818
N1562  N  0.450228  0.969231  0.477273
N1563  N  0.450228  0.969231  0.522727
N1564  N  0.450228  0.969231  0.568182
N1565  N  0.450228  0.969231  0.613636
N1566  N  0.450228  0.969231  0.659091
N1567  N  0.450228  0.969231  0.704545
N1568  N  0.450228  0.969231  0.750000
N1569  N  0.450228  0.969231  0.795455
N1570  N  0.450228  0.969231  0.840909
N1571  N  0.450228  0.969231  0.886364
N1572  N  0.450228  0.969231  0.931818
N1573  N  0.606829  0.654886  0.022727
N1574  N  0.606829  0.654886  0.068182
N1575  N  0.606829  0.654886  0.113636
N1576  N  0.606829  0.654886  0.159091
N1577  N  0.606829  0.654886  0.204545
N1578  N  0.606829  0.654886  0.250000
N1579  N  0.606829  0.654886  0.295455
N1580  N  0.606829  0.654886  0.340909
N1581  N  0.606829  0.654886  0.386364
N1582  N  0.606829  0.654886  0.431818
N1583  N  0.606829  0.654886  0.477273
N1584  N  0.606829  0.654886  0.522727
N1585  N  0.606829  0.654886  0.568182
N1586  N  0.606829  0.654886  0.613636
N1587  N  0.606829  0.654886  0.659091
N1588  N  0.606829  0.654886  0.704545
N1589  N  0.606829  0.654886  0.750000
N1590  N  0.606829  0.654886  0.795455
N1591  N  0.606829  0.654886  0.840909
N1592  N  0.606829  0.654886  0.886364
N1593  N  0.606829  0.654886  0.931818
N1594  N  0.606829  0.812058  0.022727
N1595  N  0.606829  0.812058  0.068182
N1596  N  0.606829  0.812058  0.113636
N1597  N  0.606829  0.812058  0.159091
N1598  N  0.606829  0.812058  0.204545
N1599  N  0.606829  0.812058  0.250000
N1600  N  0.606829  0.812058  0.295455
N1601  N  0.606829  0.812058  0.340909
N1602  N  0.606829  0.812058  0.386364
N1603  N  0.606829  0.812058  0.431818
N1604  N  0.606829  0.812058  0.477273
N1605  N  0.606829  0.812058  0.522727
N1606  N  0.606829  0.812058  0.568182
N1607  N  0.606829  0.812058  0.613636
N1608  N  0.606829  0.812058  0.659091
N1609  N  0.606829  0.812058  0.704545
N1610  N  0.606829  0.812058  0.750000
N1611  N  0.606829  0.812058  0.795455
N1612  N  0.606829  0.812058  0.840909
N1613  N  0.606829  0.812058  0.886364
N1614  N  0.606829  0.812058  0.931818
N1615  N  0.606829  0.969231  0.022727
N1616  N  0.606829  0.969231  0.068182
N1617  N  0.606829  0.969231  0.113636
N1618  N  0.606829  0.969231  0.159091
N1619  N  0.606829  0.969231  0.204545
N1620  N  0.606829  0.969231  0.250000
N1621  N  0.606829  0.969231  0.295455
N1622  N  0.606829  0.969231  0.340909
N1623  N  0.606829  0.969231  0.386364
N1624  N  0.606829  0.969231  0.431818
N1625  N  0.606829  0.969231  0.477273
N1626  N  0.606829  0.969231  0.522727
N1627  N  0.606829  0.969231  0.568182
N1628  N  0.606829  0.969231  0.613636
N1629  N  0.606829  0.969231  0.659091
N1630  N  0.606829  0.969231  0.704545
N1631  N  0.606829  0.969231  0.750000
N1632  N  0.606829  0.969231  0.795455
N1633  N  0.606829  0.969231  0.840909
N1634  N  0.606829  0.969231  0.886364
N1635  N  0.606829  0.969231  0.931818
N1636  N  0.763430  0.812058  0.022727
N1637  N  0.763430  0.812058  0.068182
N1638  N  0.763430  0.812058  0.113636
N1639  N  0.763430  0.812058  0.159091
N1640  N  0.763430  0.812058  0.204545
N1641  N  0.763430  0.812058  0.250000
N1642  N  0.763430  0.812058  0.295455
N1643  N  0.763430  0.812058  0.340909
N1644  N  0.763430  0.812058  0.386364
N1645  N  0.763430  0.812058  0.431818
N1646  N  0.763430  0.812058  0.477273
N1647  N  0.763430  0.812058  0.522727
N1648  N  0.763430  0.812058  0.568182
N1649  N  0.763430  0.812058  0.613636
N1650  N  0.763430  0.812058  0.659091
N1651  N  0.763430  0.812058  0.704545
N1652  N  0.763430  0.812058  0.750000
N1653  N  0.763430  0.812058  0.795455
N1654  N  0.763430  0.812058  0.840909
N1655  N  0.763430  0.812058  0.886364
N1656  N  0.763430  0.812058  0.931818
N1657  N  0.920031  0.812058  0.022727
N1658  N  0.920031  0.812058  0.068182
N1659  N  0.920031  0.812058  0.113636
N1660  N  0.920031  0.812058  0.159091
N1661  N  0.920031  0.812058  0.204545
N1662  N  0.920031  0.812058  0.250000
N1663  N  0.920031  0.812058  0.295455
N1664  N  0.920031  0.812058  0.340909
N1665  N  0.920031  0.812058  0.386364
N1666  N  0.920031  0.812058  0.431818
N1667  N  0.920031  0.812058  0.477273
N1668  N  0.920031  0.812058  0.522727
N1669  N  0.920031  0.812058  0.568182
N1670  N  0.920031  0.812058  0.613636
N1671  N  0.920031  0.812058  0.659091
N1672  N  0.920031  0.812058  0.704545
N1673  N  0.920031  0.812058  0.750000
N1674  N  0.920031  0.812058  0.795455
N1675  N  0.920031  0.812058  0.840909
N1676  N  0.920031  0.812058  0.886364
N1677  N  0.920031  0.812058  0.931818
N1678  N  -0.019575  0.340541 -0.022727
N1679  N  -0.019575  0.340541  0.022727
N1680  N  -0.019575  0.419127  0.000000
N1681  N  -0.019575  0.340541  0.931818
N1682  N  -0.019575  0.340541  0.977273
N1683  N  -0.019575  0.419127  0.954545
N1684  N  -0.019575  0.340541  0.068182
N1685  N  -0.019575  0.419127  0.045455
N1686  N  -0.019575  0.340541  0.113636
N1687  N  -0.019575  0.419127  0.090909
N1688  N  -0.019575  0.340541  0.159091
N1689  N  -0.019575  0.419127  0.136364
N1690  N  -0.019575  0.340541  0.204545
N1691  N  -0.019575  0.419127  0.181818
N1692  N  -0.019575  0.340541  0.250000
N1693  N  -0.019575  0.419127  0.227273
N1694  N  -0.019575  0.340541  0.295455
N1695  N  -0.019575  0.419127  0.272727
N1696  N  -0.019575  0.340541  0.340909
N1697  N  -0.019575  0.419127  0.318182
N1698  N  -0.019575  0.340541  0.386364
N1699  N  -0.019575  0.419127  0.363636
N1700  N  -0.019575  0.340541  0.431818
N1701  N  -0.019575  0.419127  0.409091
N1702  N  -0.019575  0.340541  0.477273
N1703  N  -0.019575  0.419127  0.454545
N1704  N  -0.019575  0.340541  0.522727
N1705  N  -0.019575  0.419127  0.500000
N1706  N  -0.019575  0.340541  0.568182
N1707  N  -0.019575  0.419127  0.545455
N1708  N  -0.019575  0.340541  0.613636
N1709  N  -0.019575  0.419127  0.590909
N1710  N  -0.019575  0.340541  0.659091
N1711  N  -0.019575  0.419127  0.636364
N1712  N  -0.019575  0.340541  0.704545
N1713  N  -0.019575  0.419127  0.681818
N1714  N  -0.019575  0.340541  0.750000
N1715  N  -0.019575  0.419127  0.727273
N1716  N  -0.019575  0.340541  0.795455
N1717  N  -0.019575  0.419127  0.772727
N1718  N  -0.019575  0.340541  0.840909
N1719  N  -0.019575  0.419127  0.818182
N1720  N  -0.019575  0.340541  0.886364
N1721  N  -0.019575  0.419127  0.863636
N1722  N  -0.019575  0.419127  0.909091
N1723  N  -0.019575  0.497713 -0.022727
N1724  N  -0.019575  0.497713  0.022727
N1725  N  -0.019575  0.576300  0.000000
N1726  N  -0.019575  0.497713  0.931818
N1727  N  -0.019575  0.497713  0.977273
N1728  N  -0.019575  0.576300  0.954545
N1729  N  -0.019575  0.497713  0.068182
N1730  N  -0.019575  0.576300  0.045455
N1731  N  -0.019575  0.497713  0.113636
N1732  N  -0.019575  0.576300  0.090909
N1733  N  -0.019575  0.497713  0.159091
N1734  N  -0.019575  0.576300  0.136364
N1735  N  -0.019575  0.497713  0.204545
N1736  N  -0.019575  0.576300  0.181818
N1737  N  -0.019575  0.497713  0.250000
N1738  N  -0.019575  0.576300  0.227273
N1739  N  -0.019575  0.497713  0.295455
N1740  N  -0.019575  0.576300  0.272727
N1741  N  -0.019575  0.497713  0.340909
N1742  N  -0.019575  0.576300  0.318182
N1743  N  -0.019575  0.497713  0.386364
N1744  N  -0.019575  0.576300  0.363636
N1745  N  -0.019575  0.497713  0.431818
N1746  N  -0.019575  0.576300  0.409091
N1747  N  -0.019575  0.497713  0.477273
N1748  N  -0.019575  0.576300  0.454545
N1749  N  -0.019575  0.497713  0.522727
N1750  N  -0.019575  0.576300  0.500000
N1751  N  -0.019575  0.497713  0.568182
N1752  N  -0.019575  0.576300  0.545455
N1753  N  -0.019575  0.497713  0.613636
N1754  N  -0.019575  0.576300  0.590909
N1755  N  -0.019575  0.497713  0.659091
N1756  N  -0.019575  0.576300  0.636364
N1757  N  -0.019575  0.497713  0.704545
N1758  N  -0.019575  0.576300  0.681818
N1759  N  -0.019575  0.497713  0.750000
N1760  N  -0.019575  0.576300  0.727273
N1761  N  -0.019575  0.497713  0.795455
N1762  N  -0.019575  0.576300  0.772727
N1763  N  -0.019575  0.497713  0.840909
N1764  N  -0.019575  0.576300  0.818182
N1765  N  -0.019575  0.497713  0.886364
N1766  N  -0.019575  0.576300  0.863636
N1767  N  -0.019575  0.576300  0.909091
N1768  N  -0.019575  0.654886 -0.022727
N1769  N  -0.019575  0.654886  0.022727
N1770  N  -0.019575  0.733472  0.000000
N1771  N  -0.019575  0.654886  0.931818
N1772  N  -0.019575  0.654886  0.977273
N1773  N  -0.019575  0.733472  0.954545
N1774  N  -0.019575  0.654886  0.068182
N1775  N  -0.019575  0.733472  0.045455
N1776  N  -0.019575  0.654886  0.113636
N1777  N  -0.019575  0.733472  0.090909
N1778  N  -0.019575  0.654886  0.159091
N1779  N  -0.019575  0.733472  0.136364
N1780  N  -0.019575  0.654886  0.204545
N1781  N  -0.019575  0.733472  0.181818
N1782  N  -0.019575  0.654886  0.250000
N1783  N  -0.019575  0.733472  0.227273
N1784  N  -0.019575  0.654886  0.295455
N1785  N  -0.019575  0.733472  0.272727
N1786  N  -0.019575  0.654886  0.340909
N1787  N  -0.019575  0.733472  0.318182
N1788  N  -0.019575  0.654886  0.386364
N1789  N  -0.019575  0.733472  0.363636
N1790  N  -0.019575  0.654886  0.431818
N1791  N  -0.019575  0.733472  0.409091
N1792  N  -0.019575  0.654886  0.477273
N1793  N  -0.019575  0.733472  0.454545
N1794  N  -0.019575  0.654886  0.522727
N1795  N  -0.019575  0.733472  0.500000
N1796  N  -0.019575  0.654886  0.568182
N1797  N  -0.019575  0.733472  0.545455
N1798  N  -0.019575  0.654886  0.613636
N1799  N  -0.019575  0.733472  0.590909
N1800  N  -0.019575  0.654886  0.659091
N1801  N  -0.019575  0.733472  0.636364
N1802  N  -0.019575  0.654886  0.704545
N1803  N  -0.019575  0.733472  0.681818
N1804  N  -0.019575  0.654886  0.750000
N1805  N  -0.019575  0.733472  0.727273
N1806  N  -0.019575  0.654886  0.795455
N1807  N  -0.019575  0.733472  0.772727
N1808  N  -0.019575  0.654886  0.840909
N1809  N  -0.019575  0.733472  0.818182
N1810  N  -0.019575  0.654886  0.886364
N1811  N  -0.019575  0.733472  0.863636
N1812  N  -0.019575  0.733472  0.909091
N1813  N  -0.019575  0.812058 -0.022727
N1814  N  -0.019575  0.812058  0.022727
N1815  N  -0.019575  0.890645  0.000000
N1816  N  -0.019575  0.812058  0.931818
N1817  N  -0.019575  0.812058  0.977273
N1818  N  -0.019575  0.890645  0.954545
N1819  N  -0.019575  0.812058  0.068182
N1820  N  -0.019575  0.890645  0.045455
N1821  N  -0.019575  0.812058  0.113636
N1822  N  -0.019575  0.890645  0.090909
N1823  N  -0.019575  0.812058  0.159091
N1824  N  -0.019575  0.890645  0.136364
N1825  N  -0.019575  0.812058  0.204545
N1826  N  -0.019575  0.890645  0.181818
N1827  N  -0.019575  0.812058  0.250000
N1828  N  -0.019575  0.890645  0.227273
N1829  N  -0.019575  0.812058  0.295455
N1830  N  -0.019575  0.890645  0.272727
N1831  N  -0.019575  0.812058  0.340909
N1832  N  -0.019575  0.890645  0.318182
N1833  N  -0.019575  0.812058  0.386364
N1834  N  -0.019575  0.890645  0.363636
N1835  N  -0.019575  0.812058  0.431818
N1836  N  -0.019575  0.890645  0.409091
N1837  N  -0.019575  0.812058  0.477273
N1838  N  -0.019575  0.890645  0.454545
N1839  N  -0.019575  0.812058  0.522727
N1840  N  -0.019575  0.890645  0.500000
N1841  N  -0.019575  0.812058  0.568182
N1842  N  -0.019575  0.890645  0.545455
N1843  N  -0.019575  0.812058  0.613636
N1844  N  -0.019575  0.890645  0.590909
N1845  N  -0.019575  0.812058  0.659091
N1846  N  -0.019575  0.890645  0.636364
N1847  N  -0.019575  0.812058  0.704545
N1848  N  -0.019575  0.890645  0.681818
N1849  N  -0.019575  0.812058  0.750000
N1850  N  -0.019575  0.890645  0.727273
N1851  N  -0.019575  0.812058  0.795455
N1852  N  -0.019575  0.890645  0.772727
N1853  N  -0.019575  0.812058  0.840909
N1854  N  -0.019575  0.890645  0.818182
N1855  N  -0.019575  0.812058  0.886364
N1856  N  -0.019575  0.890645  0.863636
N1857  N  -0.019575  0.890645  0.909091
N1858  N  -0.019575  0.969231 -0.022727
N1859  N  -0.019575  0.969231  0.022727
N1860  N  -0.019575  1.047817  0.000000
N1861  N  -0.019575  0.969231  0.931818
N1862  N  -0.019575  0.969231  0.977273
N1863  N  -0.019575  1.047817  0.954545
N1864  N  -0.019575  0.969231  0.068182
N1865  N  -0.019575  1.047817  0.045455
N1866  N  -0.019575  0.969231  0.113636
N1867  N  -0.019575  1.047817  0.090909
N1868  N  -0.019575  0.969231  0.159091
N1869  N  -0.019575  1.047817  0.136364
N1870  N  -0.019575  0.969231  0.204545
N1871  N  -0.019575  1.047817  0.181818
N1872  N  -0.019575  0.969231  0.250000
N1873  N  -0.019575  1.047817  0.227273
N1874  N  -0.019575  0.969231  0.295455
N1875  N  -0.019575  1.047817  0.272727
N1876  N  -0.019575  0.969231  0.340909
N1877  N  -0.019575  1.047817  0.318182
N1878  N  -0.019575  0.969231  0.386364
N1879  N  -0.019575  1.047817  0.363636
N1880  N  -0.019575  0.969231  0.431818
N1881  N  -0.019575  1.047817  0.409091
N1882  N  -0.019575  0.969231  0.477273
N1883  N  -0.019575  1.047817  0.454545
N1884  N  -0.019575  0.969231  0.522727
N1885  N  -0.019575  1.047817  0.500000
N1886  N  -0.019575  0.969231  0.568182
N1887  N  -0.019575  1.047817  0.545455
N1888  N  -0.019575  0.969231  0.613636
N1889  N  -0.019575  1.047817  0.590909
N1890  N  -0.019575  0.969231  0.659091
N1891  N  -0.019575  1.047817  0.636364
N1892  N  -0.019575  0.969231  0.704545
N1893  N  -0.019575  1.047817  0.681818
N1894  N  -0.019575  0.969231  0.750000
N1895  N  -0.019575  1.047817  0.727273
N1896  N  -0.019575  0.969231  0.795455
N1897  N  -0.019575  1.047817  0.772727
N1898  N  -0.019575  0.969231  0.840909
N1899  N  -0.019575  1.047817  0.818182
N1900  N  -0.019575  0.969231  0.886364
N1901  N  -0.019575  1.047817  0.863636
N1902  N  -0.019575  1.047817  0.909091
N1903  N  -0.019575  1.126404 -0.022727
N1904  N  -0.019575  1.126404  0.022727
N1905  N  -0.019575  1.204990  0.000000
N1906  N  -0.019575  1.126404  0.931818
N1907  N  -0.019575  1.126404  0.977273
N1908  N  -0.019575  1.204990  0.954545
N1909  N  -0.019575  1.126404  0.068182
N1910  N  -0.019575  1.204990  0.045455
N1911  N  -0.019575  1.126404  0.113636
N1912  N  -0.019575  1.204990  0.090909
N1913  N  -0.019575  1.126404  0.159091
N1914  N  -0.019575  1.204990  0.136364
N1915  N  -0.019575  1.126404  0.204545
N1916  N  -0.019575  1.204990  0.181818
N1917  N  -0.019575  1.126404  0.250000
N1918  N  -0.019575  1.204990  0.227273
N1919  N  -0.019575  1.126404  0.295455
N1920  N  -0.019575  1.204990  0.272727
N1921  N  -0.019575  1.126404  0.340909
N1922  N  -0.019575  1.204990  0.318182
N1923  N  -0.019575  1.126404  0.386364
N1924  N  -0.019575  1.204990  0.363636
N1925  N  -0.019575  1.126404  0.431818
N1926  N  -0.019575  1.204990  0.409091
N1927  N  -0.019575  1.126404  0.477273
N1928  N  -0.019575  1.204990  0.454545
N1929  N  -0.019575  1.126404  0.522727
N1930  N  -0.019575  1.204990  0.500000
N1931  N  -0.019575  1.126404  0.568182
N1932  N  -0.019575  1.204990  0.545455
N1933  N  -0.019575  1.126404  0.613636
N1934  N  -0.019575  1.204990  0.590909
N1935  N  -0.019575  1.126404  0.659091
N1936  N  -0.019575  1.204990  0.636364
N1937  N  -0.019575  1.126404  0.704545
N1938  N  -0.019575  1.204990  0.681818
N1939  N  -0.019575  1.126404  0.750000
N1940  N  -0.019575  1.204990  0.727273
N1941  N  -0.019575  1.126404  0.795455
N1942  N  -0.019575  1.204990  0.772727
N1943  N  -0.019575  1.126404  0.840909
N1944  N  -0.019575  1.204990  0.818182
N1945  N  -0.019575  1.126404  0.886364
N1946  N  -0.019575  1.204990  0.863636
N1947  N  -0.019575  1.204990  0.909091
N1948  N  0.137026  0.497713 -0.022727
N1949  N  0.137026  0.497713  0.977273
N1950  N  0.137026  0.654886 -0.022727
N1951  N  0.137026  0.654886  0.977273
N1952  N  0.137026  0.812058 -0.022727
N1953  N  0.137026  0.812058  0.977273
N1954  N  0.137026  0.969231 -0.022727
N1955  N  0.137026  0.969231  0.977273
N1956  N  0.137026  1.126404 -0.022727
N1957  N  0.137026  1.126404  0.977273
N1958  N  0.293627  0.497713 -0.022727
N1959  N  0.293627  0.497713  0.977273
N1960  N  0.293627  0.654886 -0.022727
N1961  N  0.293627  0.654886  0.977273
N1962  N  0.293627  0.812058 -0.022727
N1963  N  0.293627  0.812058  0.977273
N1964  N  0.293627  0.969231 -0.022727
N1965  N  0.293627  0.969231  0.977273
N1966  N  0.450228  0.654886 -0.022727
N1967  N  0.450228  0.654886  0.977273
N1968  N  0.450228  0.812058 -0.022727
N1969  N  0.450228  0.812058  0.977273
N1970  N  0.450228  0.969231 -0.022727
N1971  N  0.450228  0.969231  0.977273
N1972  N  0.606829  0.654886 -0.022727
N1973  N  0.606829  0.654886  0.977273
N1974  N  0.606829  0.812058 -0.022727
N1975  N  0.606829  0.812058  0.977273
N1976  N  0.763430  0.812058 -0.022727
N1977  N  0.763430  0.812058  0.977273
N1978  N  -0.019575  1.283576  0.022727
N1979  N  -0.019575  1.283576  0.068182
N1980  N  -0.019575  1.283576  0.113636
N1981  N  -0.019575  1.283576  0.159091
N1982  N  -0.019575  1.283576  0.204545
N1983  N  -0.019575  1.283576  0.250000
N1984  N  -0.019575  1.283576  0.295455
N1985  N  -0.019575  1.283576  0.340909
N1986  N  -0.019575  1.283576  0.386364
N1987  N  -0.019575  1.283576  0.431818
N1988  N  -0.019575  1.283576  0.477273
N1989  N  -0.019575  1.283576  0.522727
N1990  N  -0.019575  1.283576  0.568182
N1991  N  -0.019575  1.283576  0.613636
N1992  N  -0.019575  1.283576  0.659091
N1993  N  -0.019575  1.283576  0.704545
N1994  N  -0.019575  1.283576  0.750000
N1995  N  -0.019575  1.283576  0.795455
N1996  N  -0.019575  1.283576  0.840909
N1997  N  -0.019575  1.283576  0.886364
N1998  N  -0.019575  1.283576  0.931818
N1999  N  0.058725  0.445322 -0.022727
N2000  N  0.058725  0.445322  0.977273
N2001  N  0.058725  0.602495 -0.022727
N2002  N  0.058725  0.602495  0.977273
N2003  N  0.058725  0.759668 -0.022727
N2004  N  0.058725  0.759668  0.977273
N2005  N  0.058725  0.916840 -0.022727
N2006  N  0.058725  0.916840  0.977273
N2007  N  0.058725  1.074013 -0.022727
N2008  N  0.058725  1.074013  0.977273
N2009  N  0.058725  1.231185 -0.022727
N2010  N  0.058725  1.231185  0.977273
N2011  N  0.215326  0.602495 -0.022727
N2012  N  0.215326  0.602495  0.977273
N2013  N  0.215326  0.759668 -0.022727
N2014  N  0.215326  0.759668  0.977273
N2015  N  0.215326  0.916840 -0.022727
N2016  N  0.215326  0.916840  0.977273
N2017  N  0.215326  1.074013 -0.022727
N2018  N  0.215326  1.074013  0.977273
N2019  N  0.371927  0.602495 -0.022727
N2020  N  0.371927  0.602495  0.977273
N2021  N  0.371927  0.759668 -0.022727
N2022  N  0.371927  0.759668  0.977273
N2023  N  0.371927  0.916840 -0.022727
N2024  N  0.371927  0.916840  0.977273
N2025  N  0.371927  1.074013 -0.022727
N2026  N  0.371927  1.074013  0.977273
N2027  N  0.528529  0.759668 -0.022727
N2028  N  0.528529  0.759668  0.977273
N2029  N  0.528529  0.916840 -0.022727
N2030  N  0.528529  0.916840  0.977273
N2031  N  0.685130  0.759668 -0.022727
N2032  N  0.685130  0.759668  0.977273
N2033  N  0.685130  0.916840 -0.022727
N2034  N  0.685130  0.916840  0.977273
